@<TRIPOS>MOLECULE
CNT
 468 672 0 0 0
SMALL
USER_CHARGES

@<TRIPOS>ATOM
      1     C    3.975    0.000    0.000    C.ar       1    CNT1    0.240
      2     C    3.045    0.000    2.555    C.ar       1    CNT1   -0.280
      3     C    1.987    0.000    3.442    C.ar       1    CNT1    0.240
      4     C   -0.690    0.000    3.914    C.ar       1    CNT1   -0.280
      5     C   -1.987    0.000    3.442    C.ar       1    CNT1    0.240
      6     C   -3.735    0.000    1.359    C.ar       1    CNT1   -0.280
      7     C   -3.975    0.000    0.000    C.ar       1    CNT1    0.240
      8     C   -3.045    0.000   -2.555    C.ar       1    CNT1   -0.280
      9     C   -1.987    0.000   -3.442    C.ar       1    CNT1    0.240
     10     C    0.690    0.000   -3.914    C.ar       1    CNT1   -0.280
     11     C    1.987    0.000   -3.442    C.ar       1    CNT1    0.240
     12     C    3.735    0.000   -1.359    C.ar       1    CNT1   -0.280
     13     C    3.914   -1.202    0.690    C.ar       1    CNT1    0.010
     14     C    3.442   -1.202    1.987    C.ar       1    CNT1    0.010
     15     C    1.359   -1.202    3.735    C.ar       1    CNT1    0.010
     16     C    0.000   -1.202    3.975    C.ar       1    CNT1    0.010
     17     C   -2.555   -1.202    3.045    C.ar       1    CNT1    0.010
     18     C   -3.442   -1.202    1.987    C.ar       1    CNT1    0.010
     19     C   -3.914   -1.202   -0.690    C.ar       1    CNT1    0.010
     20     C   -3.442   -1.202   -1.987    C.ar       1    CNT1    0.010
     21     C   -1.359   -1.202   -3.735    C.ar       1    CNT1    0.010
     22     C   -0.000   -1.202   -3.975    C.ar       1    CNT1    0.010
     23     C    2.555   -1.202   -3.045    C.ar       1    CNT1    0.010
     24     C    3.442   -1.202   -1.987    C.ar       1    CNT1    0.010
     25     C    3.975   -2.403    0.000    C.ar       1    CNT1    0.000
     26     C    3.045   -2.403    2.555    C.ar       1    CNT1    0.000
     27     C    1.987   -2.403    3.442    C.ar       1    CNT1    0.000
     28     C   -0.690   -2.403    3.914    C.ar       1    CNT1    0.000
     29     C   -1.987   -2.403    3.442    C.ar       1    CNT1    0.000
     30     C   -3.735   -2.403    1.359    C.ar       1    CNT1    0.000
     31     C   -3.975   -2.403    0.000    C.ar       1    CNT1    0.000
     32     C   -3.045   -2.403   -2.555    C.ar       1    CNT1    0.000
     33     C   -1.987   -2.403   -3.442    C.ar       1    CNT1    0.000
     34     C    0.690   -2.403   -3.914    C.ar       1    CNT1    0.000
     35     C    1.987   -2.403   -3.442    C.ar       1    CNT1    0.000
     36     C    3.735   -2.403   -1.359    C.ar       1    CNT1    0.000
     37     C    3.914   -3.605    0.690    C.ar       1    CNT1    0.000
     38     C    3.442   -3.605    1.987    C.ar       1    CNT1    0.000
     39     C    1.359   -3.605    3.735    C.ar       1    CNT1    0.000
     40     C    0.000   -3.605    3.975    C.ar       1    CNT1    0.000
     41     C   -2.555   -3.605    3.045    C.ar       1    CNT1    0.000
     42     C   -3.442   -3.605    1.987    C.ar       1    CNT1    0.000
     43     C   -3.914   -3.605   -0.690    C.ar       1    CNT1    0.000
     44     C   -3.442   -3.605   -1.987    C.ar       1    CNT1    0.000
     45     C   -1.359   -3.605   -3.735    C.ar       1    CNT1    0.000
     46     C   -0.000   -3.605   -3.975    C.ar       1    CNT1    0.000
     47     C    2.555   -3.605   -3.045    C.ar       1    CNT1    0.000
     48     C    3.442   -3.605   -1.987    C.ar       1    CNT1    0.000
     49     C    3.975   -4.806    0.000    C.ar       1    CNT1    0.000
     50     C    3.045   -4.806    2.555    C.ar       1    CNT1    0.000
     51     C    1.987   -4.806    3.442    C.ar       1    CNT1    0.000
     52     C   -0.690   -4.806    3.914    C.ar       1    CNT1    0.000
     53     C   -1.987   -4.806    3.442    C.ar       1    CNT1    0.000
     54     C   -3.735   -4.806    1.359    C.ar       1    CNT1    0.000
     55     C   -3.975   -4.806    0.000    C.ar       1    CNT1    0.000
     56     C   -3.045   -4.806   -2.555    C.ar       1    CNT1    0.000
     57     C   -1.987   -4.806   -3.442    C.ar       1    CNT1    0.000
     58     C    0.690   -4.806   -3.914    C.ar       1    CNT1    0.000
     59     C    1.987   -4.806   -3.442    C.ar       1    CNT1    0.000
     60     C    3.735   -4.806   -1.359    C.ar       1    CNT1    0.000
     61     C    3.914   -6.008    0.690    C.ar       1    CNT1    0.000
     62     C    3.442   -6.008    1.987    C.ar       1    CNT1    0.000
     63     C    1.359   -6.008    3.735    C.ar       1    CNT1    0.000
     64     C    0.000   -6.008    3.975    C.ar       1    CNT1    0.000
     65     C   -2.555   -6.008    3.045    C.ar       1    CNT1    0.000
     66     C   -3.442   -6.008    1.987    C.ar       1    CNT1    0.000
     67     C   -3.914   -6.008   -0.690    C.ar       1    CNT1    0.000
     68     C   -3.442   -6.008   -1.987    C.ar       1    CNT1    0.000
     69     C   -1.359   -6.008   -3.735    C.ar       1    CNT1    0.000
     70     C   -0.000   -6.008   -3.975    C.ar       1    CNT1    0.000
     71     C    2.555   -6.008   -3.045    C.ar       1    CNT1    0.000
     72     C    3.442   -6.008   -1.987    C.ar       1    CNT1    0.000
     73     C    3.975   -7.209    0.000    C.ar       1    CNT1    0.000
     74     C    3.045   -7.209    2.555    C.ar       1    CNT1    0.000
     75     C    1.987   -7.209    3.442    C.ar       1    CNT1    0.000
     76     C   -0.690   -7.209    3.914    C.ar       1    CNT1    0.000
     77     C   -1.987   -7.209    3.442    C.ar       1    CNT1    0.000
     78     C   -3.735   -7.209    1.359    C.ar       1    CNT1    0.000
     79     C   -3.975   -7.209    0.000    C.ar       1    CNT1    0.000
     80     C   -3.045   -7.209   -2.555    C.ar       1    CNT1    0.000
     81     C   -1.987   -7.209   -3.442    C.ar       1    CNT1    0.000
     82     C    0.690   -7.209   -3.914    C.ar       1    CNT1    0.000
     83     C    1.987   -7.209   -3.442    C.ar       1    CNT1    0.000
     84     C    3.735   -7.209   -1.359    C.ar       1    CNT1    0.000
     85     C    3.914   -8.411    0.690    C.ar       1    CNT1    0.000
     86     C    3.442   -8.411    1.987    C.ar       1    CNT1    0.000
     87     C    1.359   -8.411    3.735    C.ar       1    CNT1    0.000
     88     C    0.000   -8.411    3.975    C.ar       1    CNT1    0.000
     89     C   -2.555   -8.411    3.045    C.ar       1    CNT1    0.000
     90     C   -3.442   -8.411    1.987    C.ar       1    CNT1    0.000
     91     C   -3.914   -8.411   -0.690    C.ar       1    CNT1    0.000
     92     C   -3.442   -8.411   -1.987    C.ar       1    CNT1    0.000
     93     C   -1.359   -8.411   -3.735    C.ar       1    CNT1    0.000
     94     C   -0.000   -8.411   -3.975    C.ar       1    CNT1    0.000
     95     C    2.555   -8.411   -3.045    C.ar       1    CNT1    0.000
     96     C    3.442   -8.411   -1.987    C.ar       1    CNT1    0.000
     97     C    3.975   -9.612    0.000    C.ar       1    CNT1    0.000
     98     C    3.045   -9.612    2.555    C.ar       1    CNT1    0.000
     99     C    1.987   -9.612    3.442    C.ar       1    CNT1    0.000
    100     C   -0.690   -9.612    3.914    C.ar       1    CNT1    0.000
    101     C   -1.987   -9.612    3.442    C.ar       1    CNT1    0.000
    102     C   -3.735   -9.612    1.359    C.ar       1    CNT1    0.000
    103     C   -3.975   -9.612    0.000    C.ar       1    CNT1    0.000
    104     C   -3.045   -9.612   -2.555    C.ar       1    CNT1    0.000
    105     C   -1.987   -9.612   -3.442    C.ar       1    CNT1    0.000
    106     C    0.690   -9.612   -3.914    C.ar       1    CNT1    0.000
    107     C    1.987   -9.612   -3.442    C.ar       1    CNT1    0.000
    108     C    3.735   -9.612   -1.359    C.ar       1    CNT1    0.000
    109     C    3.914  -10.814    0.690    C.ar       1    CNT1    0.000
    110     C    3.442  -10.814    1.987    C.ar       1    CNT1    0.000
    111     C    1.359  -10.814    3.735    C.ar       1    CNT1    0.000
    112     C    0.000  -10.814    3.975    C.ar       1    CNT1    0.000
    113     C   -2.555  -10.814    3.045    C.ar       1    CNT1    0.000
    114     C   -3.442  -10.814    1.987    C.ar       1    CNT1    0.000
    115     C   -3.914  -10.814   -0.690    C.ar       1    CNT1    0.000
    116     C   -3.442  -10.814   -1.987    C.ar       1    CNT1    0.000
    117     C   -1.359  -10.814   -3.735    C.ar       1    CNT1    0.000
    118     C   -0.000  -10.814   -3.975    C.ar       1    CNT1    0.000
    119     C    2.555  -10.814   -3.045    C.ar       1    CNT1    0.000
    120     C    3.442  -10.814   -1.987    C.ar       1    CNT1    0.000
    121     C    3.975  -12.015    0.000    C.ar       1    CNT1    0.000
    122     C    3.045  -12.015    2.555    C.ar       1    CNT1    0.000
    123     C    1.987  -12.015    3.442    C.ar       1    CNT1    0.000
    124     C   -0.690  -12.015    3.914    C.ar       1    CNT1    0.000
    125     C   -1.987  -12.015    3.442    C.ar       1    CNT1    0.000
    126     C   -3.735  -12.015    1.359    C.ar       1    CNT1    0.000
    127     C   -3.975  -12.015    0.000    C.ar       1    CNT1    0.000
    128     C   -3.045  -12.015   -2.555    C.ar       1    CNT1    0.000
    129     C   -1.987  -12.015   -3.442    C.ar       1    CNT1    0.000
    130     C    0.690  -12.015   -3.914    C.ar       1    CNT1    0.000
    131     C    1.987  -12.015   -3.442    C.ar       1    CNT1    0.000
    132     C    3.735  -12.015   -1.359    C.ar       1    CNT1    0.000
    133     C    3.914  -13.217    0.690    C.ar       1    CNT1    0.000
    134     C    3.442  -13.217    1.987    C.ar       1    CNT1    0.000
    135     C    1.359  -13.217    3.735    C.ar       1    CNT1    0.000
    136     C    0.000  -13.217    3.975    C.ar       1    CNT1    0.000
    137     C   -2.555  -13.217    3.045    C.ar       1    CNT1    0.000
    138     C   -3.442  -13.217    1.987    C.ar       1    CNT1    0.000
    139     C   -3.914  -13.217   -0.690    C.ar       1    CNT1    0.000
    140     C   -3.442  -13.217   -1.987    C.ar       1    CNT1    0.000
    141     C   -1.359  -13.217   -3.735    C.ar       1    CNT1    0.000
    142     C   -0.000  -13.217   -3.975    C.ar       1    CNT1    0.000
    143     C    2.555  -13.217   -3.045    C.ar       1    CNT1    0.000
    144     C    3.442  -13.217   -1.987    C.ar       1    CNT1    0.000
    145     C    3.975  -14.418    0.000    C.ar       1    CNT1    0.000
    146     C    3.045  -14.418    2.555    C.ar       1    CNT1    0.000
    147     C    1.987  -14.418    3.442    C.ar       1    CNT1    0.000
    148     C   -0.690  -14.418    3.914    C.ar       1    CNT1    0.000
    149     C   -1.987  -14.418    3.442    C.ar       1    CNT1    0.000
    150     C   -3.735  -14.418    1.359    C.ar       1    CNT1    0.000
    151     C   -3.975  -14.418    0.000    C.ar       1    CNT1    0.000
    152     C   -3.045  -14.418   -2.555    C.ar       1    CNT1    0.000
    153     C   -1.987  -14.418   -3.442    C.ar       1    CNT1    0.000
    154     C    0.690  -14.418   -3.914    C.ar       1    CNT1    0.000
    155     C    1.987  -14.418   -3.442    C.ar       1    CNT1    0.000
    156     C    3.735  -14.418   -1.359    C.ar       1    CNT1    0.000
    157     C    3.914  -15.620    0.690    C.ar       1    CNT1    0.000
    158     C    3.442  -15.620    1.987    C.ar       1    CNT1    0.000
    159     C    1.359  -15.620    3.735    C.ar       1    CNT1    0.000
    160     C    0.000  -15.620    3.975    C.ar       1    CNT1    0.000
    161     C   -2.555  -15.620    3.045    C.ar       1    CNT1    0.000
    162     C   -3.442  -15.620    1.987    C.ar       1    CNT1    0.000
    163     C   -3.914  -15.620   -0.690    C.ar       1    CNT1    0.000
    164     C   -3.442  -15.620   -1.987    C.ar       1    CNT1    0.000
    165     C   -1.359  -15.620   -3.735    C.ar       1    CNT1    0.000
    166     C   -0.000  -15.620   -3.975    C.ar       1    CNT1    0.000
    167     C    2.555  -15.620   -3.045    C.ar       1    CNT1    0.000
    168     C    3.442  -15.620   -1.987    C.ar       1    CNT1    0.000
    169     C    3.975  -16.821    0.000    C.ar       1    CNT1    0.000
    170     C    3.045  -16.821    2.555    C.ar       1    CNT1    0.000
    171     C    1.987  -16.821    3.442    C.ar       1    CNT1    0.000
    172     C   -0.690  -16.821    3.914    C.ar       1    CNT1    0.000
    173     C   -1.987  -16.821    3.442    C.ar       1    CNT1    0.000
    174     C   -3.735  -16.821    1.359    C.ar       1    CNT1    0.000
    175     C   -3.975  -16.821    0.000    C.ar       1    CNT1    0.000
    176     C   -3.045  -16.821   -2.555    C.ar       1    CNT1    0.000
    177     C   -1.987  -16.821   -3.442    C.ar       1    CNT1    0.000
    178     C    0.690  -16.821   -3.914    C.ar       1    CNT1    0.000
    179     C    1.987  -16.821   -3.442    C.ar       1    CNT1    0.000
    180     C    3.735  -16.821   -1.359    C.ar       1    CNT1    0.000
    181     C    3.914  -18.023    0.690    C.ar       1    CNT1    0.000
    182     C    3.442  -18.023    1.987    C.ar       1    CNT1    0.000
    183     C    1.359  -18.023    3.735    C.ar       1    CNT1    0.000
    184     C    0.000  -18.023    3.975    C.ar       1    CNT1    0.000
    185     C   -2.555  -18.023    3.045    C.ar       1    CNT1    0.000
    186     C   -3.442  -18.023    1.987    C.ar       1    CNT1    0.000
    187     C   -3.914  -18.023   -0.690    C.ar       1    CNT1    0.000
    188     C   -3.442  -18.023   -1.987    C.ar       1    CNT1    0.000
    189     C   -1.359  -18.023   -3.735    C.ar       1    CNT1    0.000
    190     C   -0.000  -18.023   -3.975    C.ar       1    CNT1    0.000
    191     C    2.555  -18.023   -3.045    C.ar       1    CNT1    0.000
    192     C    3.442  -18.023   -1.987    C.ar       1    CNT1    0.000
    193     C    3.975  -19.224    0.000    C.ar       1    CNT1    0.000
    194     C    3.045  -19.224    2.555    C.ar       1    CNT1    0.000
    195     C    1.987  -19.224    3.442    C.ar       1    CNT1    0.000
    196     C   -0.690  -19.224    3.914    C.ar       1    CNT1    0.000
    197     C   -1.987  -19.224    3.442    C.ar       1    CNT1    0.000
    198     C   -3.735  -19.224    1.359    C.ar       1    CNT1    0.000
    199     C   -3.975  -19.224    0.000    C.ar       1    CNT1    0.000
    200     C   -3.045  -19.224   -2.555    C.ar       1    CNT1    0.000
    201     C   -1.987  -19.224   -3.442    C.ar       1    CNT1    0.000
    202     C    0.690  -19.224   -3.914    C.ar       1    CNT1    0.000
    203     C    1.987  -19.224   -3.442    C.ar       1    CNT1    0.000
    204     C    3.735  -19.224   -1.359    C.ar       1    CNT1    0.000
    205     C    3.914  -20.426    0.690    C.ar       1    CNT1    0.000
    206     C    3.442  -20.426    1.987    C.ar       1    CNT1    0.000
    207     C    1.359  -20.426    3.735    C.ar       1    CNT1    0.000
    208     C    0.000  -20.426    3.975    C.ar       1    CNT1    0.000
    209     C   -2.555  -20.426    3.045    C.ar       1    CNT1    0.000
    210     C   -3.442  -20.426    1.987    C.ar       1    CNT1    0.000
    211     C   -3.914  -20.426   -0.690    C.ar       1    CNT1    0.000
    212     C   -3.442  -20.426   -1.987    C.ar       1    CNT1    0.000
    213     C   -1.359  -20.426   -3.735    C.ar       1    CNT1    0.000
    214     C   -0.000  -20.426   -3.975    C.ar       1    CNT1    0.000
    215     C    2.555  -20.426   -3.045    C.ar       1    CNT1    0.000
    216     C    3.442  -20.426   -1.987    C.ar       1    CNT1    0.000
    217     C    3.975  -21.627    0.000    C.ar       1    CNT1    0.000
    218     C    3.045  -21.627    2.555    C.ar       1    CNT1    0.000
    219     C    1.987  -21.627    3.442    C.ar       1    CNT1    0.000
    220     C   -0.690  -21.627    3.914    C.ar       1    CNT1    0.000
    221     C   -1.987  -21.627    3.442    C.ar       1    CNT1    0.000
    222     C   -3.735  -21.627    1.359    C.ar       1    CNT1    0.000
    223     C   -3.975  -21.627    0.000    C.ar       1    CNT1    0.000
    224     C   -3.045  -21.627   -2.555    C.ar       1    CNT1    0.000
    225     C   -1.987  -21.627   -3.442    C.ar       1    CNT1    0.000
    226     C    0.690  -21.627   -3.914    C.ar       1    CNT1    0.000
    227     C    1.987  -21.627   -3.442    C.ar       1    CNT1    0.000
    228     C    3.735  -21.627   -1.359    C.ar       1    CNT1    0.000
    229     C    3.914  -22.829    0.690    C.ar       1    CNT1    0.000
    230     C    3.442  -22.829    1.987    C.ar       1    CNT1    0.000
    231     C    1.359  -22.829    3.735    C.ar       1    CNT1    0.000
    232     C    0.000  -22.829    3.975    C.ar       1    CNT1    0.000
    233     C   -2.555  -22.829    3.045    C.ar       1    CNT1    0.000
    234     C   -3.442  -22.829    1.987    C.ar       1    CNT1    0.000
    235     C   -3.914  -22.829   -0.690    C.ar       1    CNT1    0.000
    236     C   -3.442  -22.829   -1.987    C.ar       1    CNT1    0.000
    237     C   -1.359  -22.829   -3.735    C.ar       1    CNT1    0.000
    238     C   -0.000  -22.829   -3.975    C.ar       1    CNT1    0.000
    239     C    2.555  -22.829   -3.045    C.ar       1    CNT1    0.000
    240     C    3.442  -22.829   -1.987    C.ar       1    CNT1    0.000
    241     C    3.975  -24.030    0.000    C.ar       1    CNT1    0.000
    242     C    3.045  -24.030    2.555    C.ar       1    CNT1    0.000
    243     C    1.987  -24.030    3.442    C.ar       1    CNT1    0.000
    244     C   -0.690  -24.030    3.914    C.ar       1    CNT1    0.000
    245     C   -1.987  -24.030    3.442    C.ar       1    CNT1    0.000
    246     C   -3.735  -24.030    1.359    C.ar       1    CNT1    0.000
    247     C   -3.975  -24.030    0.000    C.ar       1    CNT1    0.000
    248     C   -3.045  -24.030   -2.555    C.ar       1    CNT1    0.000
    249     C   -1.987  -24.030   -3.442    C.ar       1    CNT1    0.000
    250     C    0.690  -24.030   -3.914    C.ar       1    CNT1    0.000
    251     C    1.987  -24.030   -3.442    C.ar       1    CNT1    0.000
    252     C    3.735  -24.030   -1.359    C.ar       1    CNT1    0.000
    253     C    3.914  -25.232    0.690    C.ar       1    CNT1    0.000
    254     C    3.442  -25.232    1.987    C.ar       1    CNT1    0.000
    255     C    1.359  -25.232    3.735    C.ar       1    CNT1    0.000
    256     C    0.000  -25.232    3.975    C.ar       1    CNT1    0.000
    257     C   -2.555  -25.232    3.045    C.ar       1    CNT1    0.000
    258     C   -3.442  -25.232    1.987    C.ar       1    CNT1    0.000
    259     C   -3.914  -25.232   -0.690    C.ar       1    CNT1    0.000
    260     C   -3.442  -25.232   -1.987    C.ar       1    CNT1    0.000
    261     C   -1.359  -25.232   -3.735    C.ar       1    CNT1    0.000
    262     C   -0.000  -25.232   -3.975    C.ar       1    CNT1    0.000
    263     C    2.555  -25.232   -3.045    C.ar       1    CNT1    0.000
    264     C    3.442  -25.232   -1.987    C.ar       1    CNT1    0.000
    265     C    3.975  -26.434    0.000    C.ar       1    CNT1    0.000
    266     C    3.045  -26.434    2.555    C.ar       1    CNT1    0.000
    267     C    1.987  -26.434    3.442    C.ar       1    CNT1    0.000
    268     C   -0.690  -26.434    3.914    C.ar       1    CNT1    0.000
    269     C   -1.987  -26.434    3.442    C.ar       1    CNT1    0.000
    270     C   -3.735  -26.434    1.359    C.ar       1    CNT1    0.000
    271     C   -3.975  -26.434    0.000    C.ar       1    CNT1    0.000
    272     C   -3.045  -26.434   -2.555    C.ar       1    CNT1    0.000
    273     C   -1.987  -26.434   -3.442    C.ar       1    CNT1    0.000
    274     C    0.690  -26.434   -3.914    C.ar       1    CNT1    0.000
    275     C    1.987  -26.434   -3.442    C.ar       1    CNT1    0.000
    276     C    3.735  -26.434   -1.359    C.ar       1    CNT1    0.000
    277     C    3.914  -27.635    0.690    C.ar       1    CNT1    0.000
    278     C    3.442  -27.635    1.987    C.ar       1    CNT1    0.000
    279     C    1.359  -27.635    3.735    C.ar       1    CNT1    0.000
    280     C    0.000  -27.635    3.975    C.ar       1    CNT1    0.000
    281     C   -2.555  -27.635    3.045    C.ar       1    CNT1    0.000
    282     C   -3.442  -27.635    1.987    C.ar       1    CNT1    0.000
    283     C   -3.914  -27.635   -0.690    C.ar       1    CNT1    0.000
    284     C   -3.442  -27.635   -1.987    C.ar       1    CNT1    0.000
    285     C   -1.359  -27.635   -3.735    C.ar       1    CNT1    0.000
    286     C   -0.000  -27.635   -3.975    C.ar       1    CNT1    0.000
    287     C    2.555  -27.635   -3.045    C.ar       1    CNT1    0.000
    288     C    3.442  -27.635   -1.987    C.ar       1    CNT1    0.000
    289     C    3.975  -28.837    0.000    C.ar       1    CNT1    0.000
    290     C    3.045  -28.837    2.555    C.ar       1    CNT1    0.000
    291     C    1.987  -28.837    3.442    C.ar       1    CNT1    0.000
    292     C   -0.690  -28.837    3.914    C.ar       1    CNT1    0.000
    293     C   -1.987  -28.837    3.442    C.ar       1    CNT1    0.000
    294     C   -3.735  -28.837    1.359    C.ar       1    CNT1    0.000
    295     C   -3.975  -28.837    0.000    C.ar       1    CNT1    0.000
    296     C   -3.045  -28.837   -2.555    C.ar       1    CNT1    0.000
    297     C   -1.987  -28.837   -3.442    C.ar       1    CNT1    0.000
    298     C    0.690  -28.837   -3.914    C.ar       1    CNT1    0.000
    299     C    1.987  -28.837   -3.442    C.ar       1    CNT1    0.000
    300     C    3.735  -28.837   -1.359    C.ar       1    CNT1    0.000
    301     C    3.914  -30.038    0.690    C.ar       1    CNT1    0.000
    302     C    3.442  -30.038    1.987    C.ar       1    CNT1    0.000
    303     C    1.359  -30.038    3.735    C.ar       1    CNT1    0.000
    304     C    0.000  -30.038    3.975    C.ar       1    CNT1    0.000
    305     C   -2.555  -30.038    3.045    C.ar       1    CNT1    0.000
    306     C   -3.442  -30.038    1.987    C.ar       1    CNT1    0.000
    307     C   -3.914  -30.038   -0.690    C.ar       1    CNT1    0.000
    308     C   -3.442  -30.038   -1.987    C.ar       1    CNT1    0.000
    309     C   -1.359  -30.038   -3.735    C.ar       1    CNT1    0.000
    310     C   -0.000  -30.038   -3.975    C.ar       1    CNT1    0.000
    311     C    2.555  -30.038   -3.045    C.ar       1    CNT1    0.000
    312     C    3.442  -30.038   -1.987    C.ar       1    CNT1    0.000
    313     C    3.975  -31.240    0.000    C.ar       1    CNT1    0.000
    314     C    3.045  -31.240    2.555    C.ar       1    CNT1    0.000
    315     C    1.987  -31.240    3.442    C.ar       1    CNT1    0.000
    316     C   -0.690  -31.240    3.914    C.ar       1    CNT1    0.000
    317     C   -1.987  -31.240    3.442    C.ar       1    CNT1    0.000
    318     C   -3.735  -31.240    1.359    C.ar       1    CNT1    0.000
    319     C   -3.975  -31.240    0.000    C.ar       1    CNT1    0.000
    320     C   -3.045  -31.240   -2.555    C.ar       1    CNT1    0.000
    321     C   -1.987  -31.240   -3.442    C.ar       1    CNT1    0.000
    322     C    0.690  -31.240   -3.914    C.ar       1    CNT1    0.000
    323     C    1.987  -31.240   -3.442    C.ar       1    CNT1    0.000
    324     C    3.735  -31.240   -1.359    C.ar       1    CNT1    0.000
    325     C    3.914  -32.441    0.690    C.ar       1    CNT1    0.000
    326     C    3.442  -32.441    1.987    C.ar       1    CNT1    0.000
    327     C    1.359  -32.441    3.735    C.ar       1    CNT1    0.000
    328     C    0.000  -32.441    3.975    C.ar       1    CNT1    0.000
    329     C   -2.555  -32.441    3.045    C.ar       1    CNT1    0.000
    330     C   -3.442  -32.441    1.987    C.ar       1    CNT1    0.000
    331     C   -3.914  -32.441   -0.690    C.ar       1    CNT1    0.000
    332     C   -3.442  -32.441   -1.987    C.ar       1    CNT1    0.000
    333     C   -1.359  -32.441   -3.735    C.ar       1    CNT1    0.000
    334     C   -0.000  -32.441   -3.975    C.ar       1    CNT1    0.000
    335     C    2.555  -32.441   -3.045    C.ar       1    CNT1    0.000
    336     C    3.442  -32.441   -1.987    C.ar       1    CNT1    0.000
    337     C    3.975  -33.643    0.000    C.ar       1    CNT1    0.000
    338     C    3.045  -33.643    2.555    C.ar       1    CNT1    0.000
    339     C    1.987  -33.643    3.442    C.ar       1    CNT1    0.000
    340     C   -0.690  -33.643    3.914    C.ar       1    CNT1    0.000
    341     C   -1.987  -33.643    3.442    C.ar       1    CNT1    0.000
    342     C   -3.735  -33.643    1.359    C.ar       1    CNT1    0.000
    343     C   -3.975  -33.643    0.000    C.ar       1    CNT1    0.000
    344     C   -3.045  -33.643   -2.555    C.ar       1    CNT1    0.000
    345     C   -1.987  -33.643   -3.442    C.ar       1    CNT1    0.000
    346     C    0.690  -33.643   -3.914    C.ar       1    CNT1    0.000
    347     C    1.987  -33.643   -3.442    C.ar       1    CNT1    0.000
    348     C    3.735  -33.643   -1.359    C.ar       1    CNT1    0.000
    349     C    3.914  -34.844    0.690    C.ar       1    CNT1    0.000
    350     C    3.442  -34.844    1.987    C.ar       1    CNT1    0.000
    351     C    1.359  -34.844    3.735    C.ar       1    CNT1    0.000
    352     C    0.000  -34.844    3.975    C.ar       1    CNT1    0.000
    353     C   -2.555  -34.844    3.045    C.ar       1    CNT1    0.000
    354     C   -3.442  -34.844    1.987    C.ar       1    CNT1    0.000
    355     C   -3.914  -34.844   -0.690    C.ar       1    CNT1    0.000
    356     C   -3.442  -34.844   -1.987    C.ar       1    CNT1    0.000
    357     C   -1.359  -34.844   -3.735    C.ar       1    CNT1    0.000
    358     C   -0.000  -34.844   -3.975    C.ar       1    CNT1    0.000
    359     C    2.555  -34.844   -3.045    C.ar       1    CNT1    0.000
    360     C    3.442  -34.844   -1.987    C.ar       1    CNT1    0.000
    361     C    3.975  -36.046    0.000    C.ar       1    CNT1    0.000
    362     C    3.045  -36.046    2.555    C.ar       1    CNT1    0.000
    363     C    1.987  -36.046    3.442    C.ar       1    CNT1    0.000
    364     C   -0.690  -36.046    3.914    C.ar       1    CNT1    0.000
    365     C   -1.987  -36.046    3.442    C.ar       1    CNT1    0.000
    366     C   -3.735  -36.046    1.359    C.ar       1    CNT1    0.000
    367     C   -3.975  -36.046    0.000    C.ar       1    CNT1    0.000
    368     C   -3.045  -36.046   -2.555    C.ar       1    CNT1    0.000
    369     C   -1.987  -36.046   -3.442    C.ar       1    CNT1    0.000
    370     C    0.690  -36.046   -3.914    C.ar       1    CNT1    0.000
    371     C    1.987  -36.046   -3.442    C.ar       1    CNT1    0.000
    372     C    3.735  -36.046   -1.359    C.ar       1    CNT1    0.000
    373     C    3.914  -37.247    0.690    C.ar       1    CNT1    0.000
    374     C    3.442  -37.247    1.987    C.ar       1    CNT1    0.000
    375     C    1.359  -37.247    3.735    C.ar       1    CNT1    0.000
    376     C    0.000  -37.247    3.975    C.ar       1    CNT1    0.000
    377     C   -2.555  -37.247    3.045    C.ar       1    CNT1    0.000
    378     C   -3.442  -37.247    1.987    C.ar       1    CNT1    0.000
    379     C   -3.914  -37.247   -0.690    C.ar       1    CNT1    0.000
    380     C   -3.442  -37.247   -1.987    C.ar       1    CNT1    0.000
    381     C   -1.359  -37.247   -3.735    C.ar       1    CNT1    0.000
    382     C   -0.000  -37.247   -3.975    C.ar       1    CNT1    0.000
    383     C    2.555  -37.247   -3.045    C.ar       1    CNT1    0.000
    384     C    3.442  -37.247   -1.987    C.ar       1    CNT1    0.000
    385     C    3.975  -38.449    0.000    C.ar       1    CNT1    0.000
    386     C    3.045  -38.449    2.555    C.ar       1    CNT1    0.000
    387     C    1.987  -38.449    3.442    C.ar       1    CNT1    0.000
    388     C   -0.690  -38.449    3.914    C.ar       1    CNT1    0.000
    389     C   -1.987  -38.449    3.442    C.ar       1    CNT1    0.000
    390     C   -3.735  -38.449    1.359    C.ar       1    CNT1    0.000
    391     C   -3.975  -38.449    0.000    C.ar       1    CNT1    0.000
    392     C   -3.045  -38.449   -2.555    C.ar       1    CNT1    0.000
    393     C   -1.987  -38.449   -3.442    C.ar       1    CNT1    0.000
    394     C    0.690  -38.449   -3.914    C.ar       1    CNT1    0.000
    395     C    1.987  -38.449   -3.442    C.ar       1    CNT1    0.000
    396     C    3.735  -38.449   -1.359    C.ar       1    CNT1    0.000
    397     C    3.914  -39.650    0.690    C.ar       1    CNT1    0.000
    398     C    3.442  -39.650    1.987    C.ar       1    CNT1    0.000
    399     C    1.359  -39.650    3.735    C.ar       1    CNT1    0.000
    400     C    0.000  -39.650    3.975    C.ar       1    CNT1    0.000
    401     C   -2.555  -39.650    3.045    C.ar       1    CNT1    0.000
    402     C   -3.442  -39.650    1.987    C.ar       1    CNT1    0.000
    403     C   -3.914  -39.650   -0.690    C.ar       1    CNT1    0.000
    404     C   -3.442  -39.650   -1.987    C.ar       1    CNT1    0.000
    405     C   -1.359  -39.650   -3.735    C.ar       1    CNT1    0.000
    406     C   -0.000  -39.650   -3.975    C.ar       1    CNT1    0.000
    407     C    2.555  -39.650   -3.045    C.ar       1    CNT1    0.000
    408     C    3.442  -39.650   -1.987    C.ar       1    CNT1    0.000
    409     C    3.975  -40.852    0.000    C.ar       1    CNT1    0.010
    410     C    3.045  -40.852    2.555    C.ar       1    CNT1    0.010
    411     C    1.987  -40.852    3.442    C.ar       1    CNT1    0.010
    412     C   -0.690  -40.852    3.914    C.ar       1    CNT1    0.010
    413     C   -1.987  -40.852    3.442    C.ar       1    CNT1    0.010
    414     C   -3.735  -40.852    1.359    C.ar       1    CNT1    0.010
    415     C   -3.975  -40.852    0.000    C.ar       1    CNT1    0.010
    416     C   -3.045  -40.852   -2.555    C.ar       1    CNT1    0.010
    417     C   -1.987  -40.852   -3.442    C.ar       1    CNT1    0.010
    418     C    0.690  -40.852   -3.914    C.ar       1    CNT1    0.010
    419     C    1.987  -40.852   -3.442    C.ar       1    CNT1    0.010
    420     C    3.735  -40.852   -1.359    C.ar       1    CNT1    0.010
    421     C    3.914  -42.053    0.690    C.ar       1    CNT1    0.240
    422     C    3.442  -42.053    1.987    C.ar       1    CNT1   -0.280
    423     C    1.359  -42.053    3.735    C.ar       1    CNT1    0.240
    424     C    0.000  -42.053    3.975    C.ar       1    CNT1   -0.280
    425     C   -2.555  -42.053    3.045    C.ar       1    CNT1    0.240
    426     C   -3.442  -42.053    1.987    C.ar       1    CNT1   -0.280
    427     C   -3.914  -42.053   -0.690    C.ar       1    CNT1    0.240
    428     C   -3.442  -42.053   -1.987    C.ar       1    CNT1   -0.280
    429     C   -1.359  -42.053   -3.735    C.ar       1    CNT1    0.240
    430     C   -0.000  -42.053   -3.975    C.ar       1    CNT1   -0.280
    431     C    2.555  -42.053   -3.045    C.ar       1    CNT1    0.240
    432     C    3.442  -42.053   -1.987    C.ar       1    CNT1   -0.280
    433     O    4.690    1.238    0.000     O.3       1    CNT1   -0.530
    434     H    5.670    1.238    0.000       H       1    CNT1    0.370
    435     H    3.517    0.944    2.827       H       1    CNT1    0.180
    436     O    2.345    1.238    4.061     O.3       1    CNT1   -0.530
    437     H    2.835    1.238    4.910       H       1    CNT1    0.370
    438     H   -0.690    0.944    4.459       H       1    CNT1    0.180
    439     O   -2.345    1.238    4.061     O.3       1    CNT1   -0.530
    440     H   -2.835    1.238    4.910       H       1    CNT1    0.370
    441     H   -4.207    0.944    1.632       H       1    CNT1    0.180
    442     O   -4.690    1.238    0.000     O.3       1    CNT1   -0.530
    443     H   -5.670    1.238    0.000       H       1    CNT1    0.370
    444     H   -3.517    0.944   -2.827       H       1    CNT1    0.180
    445     O   -2.345    1.238   -4.061     O.3       1    CNT1   -0.530
    446     H   -2.835    1.238   -4.910       H       1    CNT1    0.370
    447     H    0.690    0.944   -4.459       H       1    CNT1    0.180
    448     O    2.345    1.238   -4.061     O.3       1    CNT1   -0.530
    449     H    2.835    1.238   -4.910       H       1    CNT1    0.370
    450     H    4.207    0.944   -1.632       H       1    CNT1    0.180
    451     O    4.629  -43.292    0.690     O.3       1    CNT1   -0.530
    452     H    5.609  -43.292    0.690       H       1    CNT1    0.370
    453     H    3.914  -42.997    2.260       H       1    CNT1    0.180
    454     O    1.717  -43.292    4.354     O.3       1    CNT1   -0.530
    455     H    2.207  -43.292    5.203       H       1    CNT1    0.370
    456     H    0.000  -42.997    4.520       H       1    CNT1    0.180
    457     O   -2.912  -43.292    3.664     O.3       1    CNT1   -0.530
    458     H   -3.402  -43.292    4.513       H       1    CNT1    0.370
    459     H   -3.914  -42.997    2.260       H       1    CNT1    0.180
    460     O   -4.629  -43.292   -0.690     O.3       1    CNT1   -0.530
    461     H   -5.609  -43.292   -0.690       H       1    CNT1    0.370
    462     H   -3.914  -42.997   -2.260       H       1    CNT1    0.180
    463     O   -1.717  -43.292   -4.354     O.3       1    CNT1   -0.530
    464     H   -2.207  -43.292   -5.203       H       1    CNT1    0.370
    465     H   -0.000  -42.997   -4.520       H       1    CNT1    0.180
    466     O    2.912  -43.292   -3.664     O.3       1    CNT1   -0.530
    467     H    3.402  -43.292   -4.513       H       1    CNT1    0.370
    468     H    3.914  -42.997   -2.260       H       1    CNT1    0.180
@<TRIPOS>BOND
      1       1      12      ar
      2       1      13      ar
      3       1     433       1
      4       2       3      ar
      5       2      14      ar
      6       2     435       1
      7       3      15      ar
      8       3     436       1
      9       4       5      ar
     10       4      16      ar
     11       4     438       1
     12       5      17      ar
     13       5     439       1
     14       6       7      ar
     15       6      18      ar
     16       6     441       1
     17       7      19      ar
     18       7     442       1
     19       8       9      ar
     20       8      20      ar
     21       8     444       1
     22       9      21      ar
     23       9     445       1
     24      10      11      ar
     25      10      22      ar
     26      10     447       1
     27      11      23      ar
     28      11     448       1
     29      12      24      ar
     30      12     450       1
     31      13      14      ar
     32      13      25      ar
     33      14      26      ar
     34      15      16      ar
     35      15      27      ar
     36      16      28      ar
     37      17      18      ar
     38      17      29      ar
     39      18      30      ar
     40      19      20      ar
     41      19      31      ar
     42      20      32      ar
     43      21      22      ar
     44      21      33      ar
     45      22      34      ar
     46      23      24      ar
     47      23      35      ar
     48      24      36      ar
     49      25      36      ar
     50      25      37      ar
     51      26      27      ar
     52      26      38      ar
     53      27      39      ar
     54      28      29      ar
     55      28      40      ar
     56      29      41      ar
     57      30      31      ar
     58      30      42      ar
     59      31      43      ar
     60      32      33      ar
     61      32      44      ar
     62      33      45      ar
     63      34      35      ar
     64      34      46      ar
     65      35      47      ar
     66      36      48      ar
     67      37      38      ar
     68      37      49      ar
     69      38      50      ar
     70      39      40      ar
     71      39      51      ar
     72      40      52      ar
     73      41      42      ar
     74      41      53      ar
     75      42      54      ar
     76      43      44      ar
     77      43      55      ar
     78      44      56      ar
     79      45      46      ar
     80      45      57      ar
     81      46      58      ar
     82      47      48      ar
     83      47      59      ar
     84      48      60      ar
     85      49      60      ar
     86      49      61      ar
     87      50      51      ar
     88      50      62      ar
     89      51      63      ar
     90      52      53      ar
     91      52      64      ar
     92      53      65      ar
     93      54      55      ar
     94      54      66      ar
     95      55      67      ar
     96      56      57      ar
     97      56      68      ar
     98      57      69      ar
     99      58      59      ar
    100      58      70      ar
    101      59      71      ar
    102      60      72      ar
    103      61      62      ar
    104      61      73      ar
    105      62      74      ar
    106      63      64      ar
    107      63      75      ar
    108      64      76      ar
    109      65      66      ar
    110      65      77      ar
    111      66      78      ar
    112      67      68      ar
    113      67      79      ar
    114      68      80      ar
    115      69      70      ar
    116      69      81      ar
    117      70      82      ar
    118      71      72      ar
    119      71      83      ar
    120      72      84      ar
    121      73      84      ar
    122      73      85      ar
    123      74      75      ar
    124      74      86      ar
    125      75      87      ar
    126      76      77      ar
    127      76      88      ar
    128      77      89      ar
    129      78      79      ar
    130      78      90      ar
    131      79      91      ar
    132      80      81      ar
    133      80      92      ar
    134      81      93      ar
    135      82      83      ar
    136      82      94      ar
    137      83      95      ar
    138      84      96      ar
    139      85      86      ar
    140      85      97      ar
    141      86      98      ar
    142      87      88      ar
    143      87      99      ar
    144      88     100      ar
    145      89      90      ar
    146      89     101      ar
    147      90     102      ar
    148      91      92      ar
    149      91     103      ar
    150      92     104      ar
    151      93      94      ar
    152      93     105      ar
    153      94     106      ar
    154      95      96      ar
    155      95     107      ar
    156      96     108      ar
    157      97     108      ar
    158      97     109      ar
    159      98      99      ar
    160      98     110      ar
    161      99     111      ar
    162     100     101      ar
    163     100     112      ar
    164     101     113      ar
    165     102     103      ar
    166     102     114      ar
    167     103     115      ar
    168     104     105      ar
    169     104     116      ar
    170     105     117      ar
    171     106     107      ar
    172     106     118      ar
    173     107     119      ar
    174     108     120      ar
    175     109     110      ar
    176     109     121      ar
    177     110     122      ar
    178     111     112      ar
    179     111     123      ar
    180     112     124      ar
    181     113     114      ar
    182     113     125      ar
    183     114     126      ar
    184     115     116      ar
    185     115     127      ar
    186     116     128      ar
    187     117     118      ar
    188     117     129      ar
    189     118     130      ar
    190     119     120      ar
    191     119     131      ar
    192     120     132      ar
    193     121     132      ar
    194     121     133      ar
    195     122     123      ar
    196     122     134      ar
    197     123     135      ar
    198     124     125      ar
    199     124     136      ar
    200     125     137      ar
    201     126     127      ar
    202     126     138      ar
    203     127     139      ar
    204     128     129      ar
    205     128     140      ar
    206     129     141      ar
    207     130     131      ar
    208     130     142      ar
    209     131     143      ar
    210     132     144      ar
    211     133     134      ar
    212     133     145      ar
    213     134     146      ar
    214     135     136      ar
    215     135     147      ar
    216     136     148      ar
    217     137     138      ar
    218     137     149      ar
    219     138     150      ar
    220     139     140      ar
    221     139     151      ar
    222     140     152      ar
    223     141     142      ar
    224     141     153      ar
    225     142     154      ar
    226     143     144      ar
    227     143     155      ar
    228     144     156      ar
    229     145     156      ar
    230     145     157      ar
    231     146     147      ar
    232     146     158      ar
    233     147     159      ar
    234     148     149      ar
    235     148     160      ar
    236     149     161      ar
    237     150     151      ar
    238     150     162      ar
    239     151     163      ar
    240     152     153      ar
    241     152     164      ar
    242     153     165      ar
    243     154     155      ar
    244     154     166      ar
    245     155     167      ar
    246     156     168      ar
    247     157     158      ar
    248     157     169      ar
    249     158     170      ar
    250     159     160      ar
    251     159     171      ar
    252     160     172      ar
    253     161     162      ar
    254     161     173      ar
    255     162     174      ar
    256     163     164      ar
    257     163     175      ar
    258     164     176      ar
    259     165     166      ar
    260     165     177      ar
    261     166     178      ar
    262     167     168      ar
    263     167     179      ar
    264     168     180      ar
    265     169     180      ar
    266     169     181      ar
    267     170     171      ar
    268     170     182      ar
    269     171     183      ar
    270     172     173      ar
    271     172     184      ar
    272     173     185      ar
    273     174     175      ar
    274     174     186      ar
    275     175     187      ar
    276     176     177      ar
    277     176     188      ar
    278     177     189      ar
    279     178     179      ar
    280     178     190      ar
    281     179     191      ar
    282     180     192      ar
    283     181     182      ar
    284     181     193      ar
    285     182     194      ar
    286     183     184      ar
    287     183     195      ar
    288     184     196      ar
    289     185     186      ar
    290     185     197      ar
    291     186     198      ar
    292     187     188      ar
    293     187     199      ar
    294     188     200      ar
    295     189     190      ar
    296     189     201      ar
    297     190     202      ar
    298     191     192      ar
    299     191     203      ar
    300     192     204      ar
    301     193     204      ar
    302     193     205      ar
    303     194     195      ar
    304     194     206      ar
    305     195     207      ar
    306     196     197      ar
    307     196     208      ar
    308     197     209      ar
    309     198     199      ar
    310     198     210      ar
    311     199     211      ar
    312     200     201      ar
    313     200     212      ar
    314     201     213      ar
    315     202     203      ar
    316     202     214      ar
    317     203     215      ar
    318     204     216      ar
    319     205     206      ar
    320     205     217      ar
    321     206     218      ar
    322     207     208      ar
    323     207     219      ar
    324     208     220      ar
    325     209     210      ar
    326     209     221      ar
    327     210     222      ar
    328     211     212      ar
    329     211     223      ar
    330     212     224      ar
    331     213     214      ar
    332     213     225      ar
    333     214     226      ar
    334     215     216      ar
    335     215     227      ar
    336     216     228      ar
    337     217     228      ar
    338     217     229      ar
    339     218     219      ar
    340     218     230      ar
    341     219     231      ar
    342     220     221      ar
    343     220     232      ar
    344     221     233      ar
    345     222     223      ar
    346     222     234      ar
    347     223     235      ar
    348     224     225      ar
    349     224     236      ar
    350     225     237      ar
    351     226     227      ar
    352     226     238      ar
    353     227     239      ar
    354     228     240      ar
    355     229     230      ar
    356     229     241      ar
    357     230     242      ar
    358     231     232      ar
    359     231     243      ar
    360     232     244      ar
    361     233     234      ar
    362     233     245      ar
    363     234     246      ar
    364     235     236      ar
    365     235     247      ar
    366     236     248      ar
    367     237     238      ar
    368     237     249      ar
    369     238     250      ar
    370     239     240      ar
    371     239     251      ar
    372     240     252      ar
    373     241     252      ar
    374     241     253      ar
    375     242     243      ar
    376     242     254      ar
    377     243     255      ar
    378     244     245      ar
    379     244     256      ar
    380     245     257      ar
    381     246     247      ar
    382     246     258      ar
    383     247     259      ar
    384     248     249      ar
    385     248     260      ar
    386     249     261      ar
    387     250     251      ar
    388     250     262      ar
    389     251     263      ar
    390     252     264      ar
    391     253     254      ar
    392     253     265      ar
    393     254     266      ar
    394     255     256      ar
    395     255     267      ar
    396     256     268      ar
    397     257     258      ar
    398     257     269      ar
    399     258     270      ar
    400     259     260      ar
    401     259     271      ar
    402     260     272      ar
    403     261     262      ar
    404     261     273      ar
    405     262     274      ar
    406     263     264      ar
    407     263     275      ar
    408     264     276      ar
    409     265     276      ar
    410     265     277      ar
    411     266     267      ar
    412     266     278      ar
    413     267     279      ar
    414     268     269      ar
    415     268     280      ar
    416     269     281      ar
    417     270     271      ar
    418     270     282      ar
    419     271     283      ar
    420     272     273      ar
    421     272     284      ar
    422     273     285      ar
    423     274     275      ar
    424     274     286      ar
    425     275     287      ar
    426     276     288      ar
    427     277     278      ar
    428     277     289      ar
    429     278     290      ar
    430     279     280      ar
    431     279     291      ar
    432     280     292      ar
    433     281     282      ar
    434     281     293      ar
    435     282     294      ar
    436     283     284      ar
    437     283     295      ar
    438     284     296      ar
    439     285     286      ar
    440     285     297      ar
    441     286     298      ar
    442     287     288      ar
    443     287     299      ar
    444     288     300      ar
    445     289     300      ar
    446     289     301      ar
    447     290     291      ar
    448     290     302      ar
    449     291     303      ar
    450     292     293      ar
    451     292     304      ar
    452     293     305      ar
    453     294     295      ar
    454     294     306      ar
    455     295     307      ar
    456     296     297      ar
    457     296     308      ar
    458     297     309      ar
    459     298     299      ar
    460     298     310      ar
    461     299     311      ar
    462     300     312      ar
    463     301     302      ar
    464     301     313      ar
    465     302     314      ar
    466     303     304      ar
    467     303     315      ar
    468     304     316      ar
    469     305     306      ar
    470     305     317      ar
    471     306     318      ar
    472     307     308      ar
    473     307     319      ar
    474     308     320      ar
    475     309     310      ar
    476     309     321      ar
    477     310     322      ar
    478     311     312      ar
    479     311     323      ar
    480     312     324      ar
    481     313     324      ar
    482     313     325      ar
    483     314     315      ar
    484     314     326      ar
    485     315     327      ar
    486     316     317      ar
    487     316     328      ar
    488     317     329      ar
    489     318     319      ar
    490     318     330      ar
    491     319     331      ar
    492     320     321      ar
    493     320     332      ar
    494     321     333      ar
    495     322     323      ar
    496     322     334      ar
    497     323     335      ar
    498     324     336      ar
    499     325     326      ar
    500     325     337      ar
    501     326     338      ar
    502     327     328      ar
    503     327     339      ar
    504     328     340      ar
    505     329     330      ar
    506     329     341      ar
    507     330     342      ar
    508     331     332      ar
    509     331     343      ar
    510     332     344      ar
    511     333     334      ar
    512     333     345      ar
    513     334     346      ar
    514     335     336      ar
    515     335     347      ar
    516     336     348      ar
    517     337     348      ar
    518     337     349      ar
    519     338     339      ar
    520     338     350      ar
    521     339     351      ar
    522     340     341      ar
    523     340     352      ar
    524     341     353      ar
    525     342     343      ar
    526     342     354      ar
    527     343     355      ar
    528     344     345      ar
    529     344     356      ar
    530     345     357      ar
    531     346     347      ar
    532     346     358      ar
    533     347     359      ar
    534     348     360      ar
    535     349     350      ar
    536     349     361      ar
    537     350     362      ar
    538     351     352      ar
    539     351     363      ar
    540     352     364      ar
    541     353     354      ar
    542     353     365      ar
    543     354     366      ar
    544     355     356      ar
    545     355     367      ar
    546     356     368      ar
    547     357     358      ar
    548     357     369      ar
    549     358     370      ar
    550     359     360      ar
    551     359     371      ar
    552     360     372      ar
    553     361     372      ar
    554     361     373      ar
    555     362     363      ar
    556     362     374      ar
    557     363     375      ar
    558     364     365      ar
    559     364     376      ar
    560     365     377      ar
    561     366     367      ar
    562     366     378      ar
    563     367     379      ar
    564     368     369      ar
    565     368     380      ar
    566     369     381      ar
    567     370     371      ar
    568     370     382      ar
    569     371     383      ar
    570     372     384      ar
    571     373     374      ar
    572     373     385      ar
    573     374     386      ar
    574     375     376      ar
    575     375     387      ar
    576     376     388      ar
    577     377     378      ar
    578     377     389      ar
    579     378     390      ar
    580     379     380      ar
    581     379     391      ar
    582     380     392      ar
    583     381     382      ar
    584     381     393      ar
    585     382     394      ar
    586     383     384      ar
    587     383     395      ar
    588     384     396      ar
    589     385     396      ar
    590     385     397      ar
    591     386     387      ar
    592     386     398      ar
    593     387     399      ar
    594     388     389      ar
    595     388     400      ar
    596     389     401      ar
    597     390     391      ar
    598     390     402      ar
    599     391     403      ar
    600     392     393      ar
    601     392     404      ar
    602     393     405      ar
    603     394     395      ar
    604     394     406      ar
    605     395     407      ar
    606     396     408      ar
    607     397     398      ar
    608     397     409      ar
    609     398     410      ar
    610     399     400      ar
    611     399     411      ar
    612     400     412      ar
    613     401     402      ar
    614     401     413      ar
    615     402     414      ar
    616     403     404      ar
    617     403     415      ar
    618     404     416      ar
    619     405     406      ar
    620     405     417      ar
    621     406     418      ar
    622     407     408      ar
    623     407     419      ar
    624     408     420      ar
    625     409     420      ar
    626     409     421      ar
    627     410     411      ar
    628     410     422      ar
    629     411     423      ar
    630     412     413      ar
    631     412     424      ar
    632     413     425      ar
    633     414     415      ar
    634     414     426      ar
    635     415     427      ar
    636     416     417      ar
    637     416     428      ar
    638     417     429      ar
    639     418     419      ar
    640     418     430      ar
    641     419     431      ar
    642     420     432      ar
    643     421     422      ar
    644     421     451       1
    645     422     453       1
    646     423     424      ar
    647     423     454       1
    648     424     456       1
    649     425     426      ar
    650     425     457       1
    651     426     459       1
    652     427     428      ar
    653     427     460       1
    654     428     462       1
    655     429     430      ar
    656     429     463       1
    657     430     465       1
    658     431     432      ar
    659     431     466       1
    660     432     468       1
    661     433     434       1
    662     436     437       1
    663     439     440       1
    664     442     443       1
    665     445     446       1
    666     448     449       1
    667     451     452       1
    668     454     455       1
    669     457     458       1
    670     460     461       1
    671     463     464       1
    672     466     467       1
