@<TRIPOS>MOLECULE
CNT
 1290 1860 0 0 0
SMALL
USER_CHARGES

@<TRIPOS>ATOM
      1     C    9.937    0.000    0.000    C.ar       1    CNT1    0.240
      2     C    9.552    0.000    2.739    C.ar       1    CNT1   -0.280
      3     C    9.077    0.000    4.042    C.ar       1    CNT1    0.240
      4     C    7.612    0.000    6.387    C.ar       1    CNT1   -0.280
      5     C    6.649    0.000    7.384    C.ar       1    CNT1    0.240
      6     C    4.356    0.000    8.931    C.ar       1    CNT1   -0.280
      7     C    3.071    0.000    9.450    C.ar       1    CNT1    0.240
      8     C    0.347    0.000    9.930    C.ar       1    CNT1   -0.280
      9     C   -1.039    0.000    9.882    C.ar       1    CNT1    0.240
     10     C   -3.722    0.000    9.213    C.ar       1    CNT1   -0.280
     11     C   -4.968    0.000    8.605    C.ar       1    CNT1    0.240
     12     C   -7.148    0.000    6.902    C.ar       1    CNT1   -0.280
     13     C   -8.039    0.000    5.841    C.ar       1    CNT1    0.240
     14     C   -9.337    0.000    3.398    C.ar       1    CNT1   -0.280
     15     C   -9.719    0.000    2.066    C.ar       1    CNT1    0.240
     16     C   -9.912    0.000   -0.693    C.ar       1    CNT1   -0.280
     17     C   -9.719    0.000   -2.066    C.ar       1    CNT1    0.240
     18     C   -8.773    0.000   -4.665    C.ar       1    CNT1   -0.280
     19     C   -8.039    0.000   -5.841    C.ar       1    CNT1    0.240
     20     C   -6.118    0.000   -7.830    C.ar       1    CNT1   -0.280
     21     C   -4.968    0.000   -8.605    C.ar       1    CNT1    0.240
     22     C   -2.404    0.000   -9.641    C.ar       1    CNT1   -0.280
     23     C   -1.039    0.000   -9.882    C.ar       1    CNT1    0.240
     24     C    1.725    0.000   -9.786    C.ar       1    CNT1   -0.280
     25     C    3.071    0.000   -9.450    C.ar       1    CNT1    0.240
     26     C    5.556    0.000   -8.238    C.ar       1    CNT1   -0.280
     27     C    6.649    0.000   -7.384    C.ar       1    CNT1    0.240
     28     C    8.427    0.000   -5.266    C.ar       1    CNT1   -0.280
     29     C    9.077    0.000   -4.042    C.ar       1    CNT1    0.240
     30     C    9.840    0.000   -1.383    C.ar       1    CNT1   -0.280
     31     C    9.912   -1.202    0.693    C.ar       1    CNT1    0.010
     32     C    9.719   -1.202    2.066    C.ar       1    CNT1    0.010
     33     C    8.773   -1.202    4.665    C.ar       1    CNT1    0.010
     34     C    8.039   -1.202    5.841    C.ar       1    CNT1    0.010
     35     C    6.118   -1.202    7.830    C.ar       1    CNT1    0.010
     36     C    4.968   -1.202    8.605    C.ar       1    CNT1    0.010
     37     C    2.404   -1.202    9.641    C.ar       1    CNT1    0.010
     38     C    1.039   -1.202    9.882    C.ar       1    CNT1    0.010
     39     C   -1.725   -1.202    9.786    C.ar       1    CNT1    0.010
     40     C   -3.071   -1.202    9.450    C.ar       1    CNT1    0.010
     41     C   -5.556   -1.202    8.238    C.ar       1    CNT1    0.010
     42     C   -6.649   -1.202    7.384    C.ar       1    CNT1    0.010
     43     C   -8.427   -1.202    5.266    C.ar       1    CNT1    0.010
     44     C   -9.077   -1.202    4.042    C.ar       1    CNT1    0.010
     45     C   -9.840   -1.202    1.383    C.ar       1    CNT1    0.010
     46     C   -9.937   -1.202    0.000    C.ar       1    CNT1    0.010
     47     C   -9.552   -1.202   -2.739    C.ar       1    CNT1    0.010
     48     C   -9.077   -1.202   -4.042    C.ar       1    CNT1    0.010
     49     C   -7.612   -1.202   -6.387    C.ar       1    CNT1    0.010
     50     C   -6.649   -1.202   -7.384    C.ar       1    CNT1    0.010
     51     C   -4.356   -1.202   -8.931    C.ar       1    CNT1    0.010
     52     C   -3.071   -1.202   -9.450    C.ar       1    CNT1    0.010
     53     C   -0.347   -1.202   -9.930    C.ar       1    CNT1    0.010
     54     C    1.039   -1.202   -9.882    C.ar       1    CNT1    0.010
     55     C    3.722   -1.202   -9.213    C.ar       1    CNT1    0.010
     56     C    4.968   -1.202   -8.605    C.ar       1    CNT1    0.010
     57     C    7.148   -1.202   -6.902    C.ar       1    CNT1    0.010
     58     C    8.039   -1.202   -5.841    C.ar       1    CNT1    0.010
     59     C    9.337   -1.202   -3.398    C.ar       1    CNT1    0.010
     60     C    9.719   -1.202   -2.066    C.ar       1    CNT1    0.010
     61     C    9.937   -2.403    0.000    C.ar       1    CNT1    0.000
     62     C    9.552   -2.403    2.739    C.ar       1    CNT1    0.000
     63     C    9.077   -2.403    4.042    C.ar       1    CNT1    0.000
     64     C    7.612   -2.403    6.387    C.ar       1    CNT1    0.000
     65     C    6.649   -2.403    7.384    C.ar       1    CNT1    0.000
     66     C    4.356   -2.403    8.931    C.ar       1    CNT1    0.000
     67     C    3.071   -2.403    9.450    C.ar       1    CNT1    0.000
     68     C    0.347   -2.403    9.930    C.ar       1    CNT1    0.000
     69     C   -1.039   -2.403    9.882    C.ar       1    CNT1    0.000
     70     C   -3.722   -2.403    9.213    C.ar       1    CNT1    0.000
     71     C   -4.968   -2.403    8.605    C.ar       1    CNT1    0.000
     72     C   -7.148   -2.403    6.902    C.ar       1    CNT1    0.000
     73     C   -8.039   -2.403    5.841    C.ar       1    CNT1    0.000
     74     C   -9.337   -2.403    3.398    C.ar       1    CNT1    0.000
     75     C   -9.719   -2.403    2.066    C.ar       1    CNT1    0.000
     76     C   -9.912   -2.403   -0.693    C.ar       1    CNT1    0.000
     77     C   -9.719   -2.403   -2.066    C.ar       1    CNT1    0.000
     78     C   -8.773   -2.403   -4.665    C.ar       1    CNT1    0.000
     79     C   -8.039   -2.403   -5.841    C.ar       1    CNT1    0.000
     80     C   -6.118   -2.403   -7.830    C.ar       1    CNT1    0.000
     81     C   -4.968   -2.403   -8.605    C.ar       1    CNT1    0.000
     82     C   -2.404   -2.403   -9.641    C.ar       1    CNT1    0.000
     83     C   -1.039   -2.403   -9.882    C.ar       1    CNT1    0.000
     84     C    1.725   -2.403   -9.786    C.ar       1    CNT1    0.000
     85     C    3.071   -2.403   -9.450    C.ar       1    CNT1    0.000
     86     C    5.556   -2.403   -8.238    C.ar       1    CNT1    0.000
     87     C    6.649   -2.403   -7.384    C.ar       1    CNT1    0.000
     88     C    8.427   -2.403   -5.266    C.ar       1    CNT1    0.000
     89     C    9.077   -2.403   -4.042    C.ar       1    CNT1    0.000
     90     C    9.840   -2.403   -1.383    C.ar       1    CNT1    0.000
     91     C    9.912   -3.605    0.693    C.ar       1    CNT1    0.000
     92     C    9.719   -3.605    2.066    C.ar       1    CNT1    0.000
     93     C    8.773   -3.605    4.665    C.ar       1    CNT1    0.000
     94     C    8.039   -3.605    5.841    C.ar       1    CNT1    0.000
     95     C    6.118   -3.605    7.830    C.ar       1    CNT1    0.000
     96     C    4.968   -3.605    8.605    C.ar       1    CNT1    0.000
     97     C    2.404   -3.605    9.641    C.ar       1    CNT1    0.000
     98     C    1.039   -3.605    9.882    C.ar       1    CNT1    0.000
     99     C   -1.725   -3.605    9.786    C.ar       1    CNT1    0.000
    100     C   -3.071   -3.605    9.450    C.ar       1    CNT1    0.000
    101     C   -5.556   -3.605    8.238    C.ar       1    CNT1    0.000
    102     C   -6.649   -3.605    7.384    C.ar       1    CNT1    0.000
    103     C   -8.427   -3.605    5.266    C.ar       1    CNT1    0.000
    104     C   -9.077   -3.605    4.042    C.ar       1    CNT1    0.000
    105     C   -9.840   -3.605    1.383    C.ar       1    CNT1    0.000
    106     C   -9.937   -3.605    0.000    C.ar       1    CNT1    0.000
    107     C   -9.552   -3.605   -2.739    C.ar       1    CNT1    0.000
    108     C   -9.077   -3.605   -4.042    C.ar       1    CNT1    0.000
    109     C   -7.612   -3.605   -6.387    C.ar       1    CNT1    0.000
    110     C   -6.649   -3.605   -7.384    C.ar       1    CNT1    0.000
    111     C   -4.356   -3.605   -8.931    C.ar       1    CNT1    0.000
    112     C   -3.071   -3.605   -9.450    C.ar       1    CNT1    0.000
    113     C   -0.347   -3.605   -9.930    C.ar       1    CNT1    0.000
    114     C    1.039   -3.605   -9.882    C.ar       1    CNT1    0.000
    115     C    3.722   -3.605   -9.213    C.ar       1    CNT1    0.000
    116     C    4.968   -3.605   -8.605    C.ar       1    CNT1    0.000
    117     C    7.148   -3.605   -6.902    C.ar       1    CNT1    0.000
    118     C    8.039   -3.605   -5.841    C.ar       1    CNT1    0.000
    119     C    9.337   -3.605   -3.398    C.ar       1    CNT1    0.000
    120     C    9.719   -3.605   -2.066    C.ar       1    CNT1    0.000
    121     C    9.937   -4.806    0.000    C.ar       1    CNT1    0.000
    122     C    9.552   -4.806    2.739    C.ar       1    CNT1    0.000
    123     C    9.077   -4.806    4.042    C.ar       1    CNT1    0.000
    124     C    7.612   -4.806    6.387    C.ar       1    CNT1    0.000
    125     C    6.649   -4.806    7.384    C.ar       1    CNT1    0.000
    126     C    4.356   -4.806    8.931    C.ar       1    CNT1    0.000
    127     C    3.071   -4.806    9.450    C.ar       1    CNT1    0.000
    128     C    0.347   -4.806    9.930    C.ar       1    CNT1    0.000
    129     C   -1.039   -4.806    9.882    C.ar       1    CNT1    0.000
    130     C   -3.722   -4.806    9.213    C.ar       1    CNT1    0.000
    131     C   -4.968   -4.806    8.605    C.ar       1    CNT1    0.000
    132     C   -7.148   -4.806    6.902    C.ar       1    CNT1    0.000
    133     C   -8.039   -4.806    5.841    C.ar       1    CNT1    0.000
    134     C   -9.337   -4.806    3.398    C.ar       1    CNT1    0.000
    135     C   -9.719   -4.806    2.066    C.ar       1    CNT1    0.000
    136     C   -9.912   -4.806   -0.693    C.ar       1    CNT1    0.000
    137     C   -9.719   -4.806   -2.066    C.ar       1    CNT1    0.000
    138     C   -8.773   -4.806   -4.665    C.ar       1    CNT1    0.000
    139     C   -8.039   -4.806   -5.841    C.ar       1    CNT1    0.000
    140     C   -6.118   -4.806   -7.830    C.ar       1    CNT1    0.000
    141     C   -4.968   -4.806   -8.605    C.ar       1    CNT1    0.000
    142     C   -2.404   -4.806   -9.641    C.ar       1    CNT1    0.000
    143     C   -1.039   -4.806   -9.882    C.ar       1    CNT1    0.000
    144     C    1.725   -4.806   -9.786    C.ar       1    CNT1    0.000
    145     C    3.071   -4.806   -9.450    C.ar       1    CNT1    0.000
    146     C    5.556   -4.806   -8.238    C.ar       1    CNT1    0.000
    147     C    6.649   -4.806   -7.384    C.ar       1    CNT1    0.000
    148     C    8.427   -4.806   -5.266    C.ar       1    CNT1    0.000
    149     C    9.077   -4.806   -4.042    C.ar       1    CNT1    0.000
    150     C    9.840   -4.806   -1.383    C.ar       1    CNT1    0.000
    151     C    9.912   -6.008    0.693    C.ar       1    CNT1    0.000
    152     C    9.719   -6.008    2.066    C.ar       1    CNT1    0.000
    153     C    8.773   -6.008    4.665    C.ar       1    CNT1    0.000
    154     C    8.039   -6.008    5.841    C.ar       1    CNT1    0.000
    155     C    6.118   -6.008    7.830    C.ar       1    CNT1    0.000
    156     C    4.968   -6.008    8.605    C.ar       1    CNT1    0.000
    157     C    2.404   -6.008    9.641    C.ar       1    CNT1    0.000
    158     C    1.039   -6.008    9.882    C.ar       1    CNT1    0.000
    159     C   -1.725   -6.008    9.786    C.ar       1    CNT1    0.000
    160     C   -3.071   -6.008    9.450    C.ar       1    CNT1    0.000
    161     C   -5.556   -6.008    8.238    C.ar       1    CNT1    0.000
    162     C   -6.649   -6.008    7.384    C.ar       1    CNT1    0.000
    163     C   -8.427   -6.008    5.266    C.ar       1    CNT1    0.000
    164     C   -9.077   -6.008    4.042    C.ar       1    CNT1    0.000
    165     C   -9.840   -6.008    1.383    C.ar       1    CNT1    0.000
    166     C   -9.937   -6.008    0.000    C.ar       1    CNT1    0.000
    167     C   -9.552   -6.008   -2.739    C.ar       1    CNT1    0.000
    168     C   -9.077   -6.008   -4.042    C.ar       1    CNT1    0.000
    169     C   -7.612   -6.008   -6.387    C.ar       1    CNT1    0.000
    170     C   -6.649   -6.008   -7.384    C.ar       1    CNT1    0.000
    171     C   -4.356   -6.008   -8.931    C.ar       1    CNT1    0.000
    172     C   -3.071   -6.008   -9.450    C.ar       1    CNT1    0.000
    173     C   -0.347   -6.008   -9.930    C.ar       1    CNT1    0.000
    174     C    1.039   -6.008   -9.882    C.ar       1    CNT1    0.000
    175     C    3.722   -6.008   -9.213    C.ar       1    CNT1    0.000
    176     C    4.968   -6.008   -8.605    C.ar       1    CNT1    0.000
    177     C    7.148   -6.008   -6.902    C.ar       1    CNT1    0.000
    178     C    8.039   -6.008   -5.841    C.ar       1    CNT1    0.000
    179     C    9.337   -6.008   -3.398    C.ar       1    CNT1    0.000
    180     C    9.719   -6.008   -2.066    C.ar       1    CNT1    0.000
    181     C    9.937   -7.209    0.000    C.ar       1    CNT1    0.000
    182     C    9.552   -7.209    2.739    C.ar       1    CNT1    0.000
    183     C    9.077   -7.209    4.042    C.ar       1    CNT1    0.000
    184     C    7.612   -7.209    6.387    C.ar       1    CNT1    0.000
    185     C    6.649   -7.209    7.384    C.ar       1    CNT1    0.000
    186     C    4.356   -7.209    8.931    C.ar       1    CNT1    0.000
    187     C    3.071   -7.209    9.450    C.ar       1    CNT1    0.000
    188     C    0.347   -7.209    9.930    C.ar       1    CNT1    0.000
    189     C   -1.039   -7.209    9.882    C.ar       1    CNT1    0.000
    190     C   -3.722   -7.209    9.213    C.ar       1    CNT1    0.000
    191     C   -4.968   -7.209    8.605    C.ar       1    CNT1    0.000
    192     C   -7.148   -7.209    6.902    C.ar       1    CNT1    0.000
    193     C   -8.039   -7.209    5.841    C.ar       1    CNT1    0.000
    194     C   -9.337   -7.209    3.398    C.ar       1    CNT1    0.000
    195     C   -9.719   -7.209    2.066    C.ar       1    CNT1    0.000
    196     C   -9.912   -7.209   -0.693    C.ar       1    CNT1    0.000
    197     C   -9.719   -7.209   -2.066    C.ar       1    CNT1    0.000
    198     C   -8.773   -7.209   -4.665    C.ar       1    CNT1    0.000
    199     C   -8.039   -7.209   -5.841    C.ar       1    CNT1    0.000
    200     C   -6.118   -7.209   -7.830    C.ar       1    CNT1    0.000
    201     C   -4.968   -7.209   -8.605    C.ar       1    CNT1    0.000
    202     C   -2.404   -7.209   -9.641    C.ar       1    CNT1    0.000
    203     C   -1.039   -7.209   -9.882    C.ar       1    CNT1    0.000
    204     C    1.725   -7.209   -9.786    C.ar       1    CNT1    0.000
    205     C    3.071   -7.209   -9.450    C.ar       1    CNT1    0.000
    206     C    5.556   -7.209   -8.238    C.ar       1    CNT1    0.000
    207     C    6.649   -7.209   -7.384    C.ar       1    CNT1    0.000
    208     C    8.427   -7.209   -5.266    C.ar       1    CNT1    0.000
    209     C    9.077   -7.209   -4.042    C.ar       1    CNT1    0.000
    210     C    9.840   -7.209   -1.383    C.ar       1    CNT1    0.000
    211     C    9.912   -8.411    0.693    C.ar       1    CNT1    0.000
    212     C    9.719   -8.411    2.066    C.ar       1    CNT1    0.000
    213     C    8.773   -8.411    4.665    C.ar       1    CNT1    0.000
    214     C    8.039   -8.411    5.841    C.ar       1    CNT1    0.000
    215     C    6.118   -8.411    7.830    C.ar       1    CNT1    0.000
    216     C    4.968   -8.411    8.605    C.ar       1    CNT1    0.000
    217     C    2.404   -8.411    9.641    C.ar       1    CNT1    0.000
    218     C    1.039   -8.411    9.882    C.ar       1    CNT1    0.000
    219     C   -1.725   -8.411    9.786    C.ar       1    CNT1    0.000
    220     C   -3.071   -8.411    9.450    C.ar       1    CNT1    0.000
    221     C   -5.556   -8.411    8.238    C.ar       1    CNT1    0.000
    222     C   -6.649   -8.411    7.384    C.ar       1    CNT1    0.000
    223     C   -8.427   -8.411    5.266    C.ar       1    CNT1    0.000
    224     C   -9.077   -8.411    4.042    C.ar       1    CNT1    0.000
    225     C   -9.840   -8.411    1.383    C.ar       1    CNT1    0.000
    226     C   -9.937   -8.411    0.000    C.ar       1    CNT1    0.000
    227     C   -9.552   -8.411   -2.739    C.ar       1    CNT1    0.000
    228     C   -9.077   -8.411   -4.042    C.ar       1    CNT1    0.000
    229     C   -7.612   -8.411   -6.387    C.ar       1    CNT1    0.000
    230     C   -6.649   -8.411   -7.384    C.ar       1    CNT1    0.000
    231     C   -4.356   -8.411   -8.931    C.ar       1    CNT1    0.000
    232     C   -3.071   -8.411   -9.450    C.ar       1    CNT1    0.000
    233     C   -0.347   -8.411   -9.930    C.ar       1    CNT1    0.000
    234     C    1.039   -8.411   -9.882    C.ar       1    CNT1    0.000
    235     C    3.722   -8.411   -9.213    C.ar       1    CNT1    0.000
    236     C    4.968   -8.411   -8.605    C.ar       1    CNT1    0.000
    237     C    7.148   -8.411   -6.902    C.ar       1    CNT1    0.000
    238     C    8.039   -8.411   -5.841    C.ar       1    CNT1    0.000
    239     C    9.337   -8.411   -3.398    C.ar       1    CNT1    0.000
    240     C    9.719   -8.411   -2.066    C.ar       1    CNT1    0.000
    241     C    9.937   -9.612    0.000    C.ar       1    CNT1    0.000
    242     C    9.552   -9.612    2.739    C.ar       1    CNT1    0.000
    243     C    9.077   -9.612    4.042    C.ar       1    CNT1    0.000
    244     C    7.612   -9.612    6.387    C.ar       1    CNT1    0.000
    245     C    6.649   -9.612    7.384    C.ar       1    CNT1    0.000
    246     C    4.356   -9.612    8.931    C.ar       1    CNT1    0.000
    247     C    3.071   -9.612    9.450    C.ar       1    CNT1    0.000
    248     C    0.347   -9.612    9.930    C.ar       1    CNT1    0.000
    249     C   -1.039   -9.612    9.882    C.ar       1    CNT1    0.000
    250     C   -3.722   -9.612    9.213    C.ar       1    CNT1    0.000
    251     C   -4.968   -9.612    8.605    C.ar       1    CNT1    0.000
    252     C   -7.148   -9.612    6.902    C.ar       1    CNT1    0.000
    253     C   -8.039   -9.612    5.841    C.ar       1    CNT1    0.000
    254     C   -9.337   -9.612    3.398    C.ar       1    CNT1    0.000
    255     C   -9.719   -9.612    2.066    C.ar       1    CNT1    0.000
    256     C   -9.912   -9.612   -0.693    C.ar       1    CNT1    0.000
    257     C   -9.719   -9.612   -2.066    C.ar       1    CNT1    0.000
    258     C   -8.773   -9.612   -4.665    C.ar       1    CNT1    0.000
    259     C   -8.039   -9.612   -5.841    C.ar       1    CNT1    0.000
    260     C   -6.118   -9.612   -7.830    C.ar       1    CNT1    0.000
    261     C   -4.968   -9.612   -8.605    C.ar       1    CNT1    0.000
    262     C   -2.404   -9.612   -9.641    C.ar       1    CNT1    0.000
    263     C   -1.039   -9.612   -9.882    C.ar       1    CNT1    0.000
    264     C    1.725   -9.612   -9.786    C.ar       1    CNT1    0.000
    265     C    3.071   -9.612   -9.450    C.ar       1    CNT1    0.000
    266     C    5.556   -9.612   -8.238    C.ar       1    CNT1    0.000
    267     C    6.649   -9.612   -7.384    C.ar       1    CNT1    0.000
    268     C    8.427   -9.612   -5.266    C.ar       1    CNT1    0.000
    269     C    9.077   -9.612   -4.042    C.ar       1    CNT1    0.000
    270     C    9.840   -9.612   -1.383    C.ar       1    CNT1    0.000
    271     C    9.912  -10.814    0.693    C.ar       1    CNT1    0.000
    272     C    9.719  -10.814    2.066    C.ar       1    CNT1    0.000
    273     C    8.773  -10.814    4.665    C.ar       1    CNT1    0.000
    274     C    8.039  -10.814    5.841    C.ar       1    CNT1    0.000
    275     C    6.118  -10.814    7.830    C.ar       1    CNT1    0.000
    276     C    4.968  -10.814    8.605    C.ar       1    CNT1    0.000
    277     C    2.404  -10.814    9.641    C.ar       1    CNT1    0.000
    278     C    1.039  -10.814    9.882    C.ar       1    CNT1    0.000
    279     C   -1.725  -10.814    9.786    C.ar       1    CNT1    0.000
    280     C   -3.071  -10.814    9.450    C.ar       1    CNT1    0.000
    281     C   -5.556  -10.814    8.238    C.ar       1    CNT1    0.000
    282     C   -6.649  -10.814    7.384    C.ar       1    CNT1    0.000
    283     C   -8.427  -10.814    5.266    C.ar       1    CNT1    0.000
    284     C   -9.077  -10.814    4.042    C.ar       1    CNT1    0.000
    285     C   -9.840  -10.814    1.383    C.ar       1    CNT1    0.000
    286     C   -9.937  -10.814    0.000    C.ar       1    CNT1    0.000
    287     C   -9.552  -10.814   -2.739    C.ar       1    CNT1    0.000
    288     C   -9.077  -10.814   -4.042    C.ar       1    CNT1    0.000
    289     C   -7.612  -10.814   -6.387    C.ar       1    CNT1    0.000
    290     C   -6.649  -10.814   -7.384    C.ar       1    CNT1    0.000
    291     C   -4.356  -10.814   -8.931    C.ar       1    CNT1    0.000
    292     C   -3.071  -10.814   -9.450    C.ar       1    CNT1    0.000
    293     C   -0.347  -10.814   -9.930    C.ar       1    CNT1    0.000
    294     C    1.039  -10.814   -9.882    C.ar       1    CNT1    0.000
    295     C    3.722  -10.814   -9.213    C.ar       1    CNT1    0.000
    296     C    4.968  -10.814   -8.605    C.ar       1    CNT1    0.000
    297     C    7.148  -10.814   -6.902    C.ar       1    CNT1    0.000
    298     C    8.039  -10.814   -5.841    C.ar       1    CNT1    0.000
    299     C    9.337  -10.814   -3.398    C.ar       1    CNT1    0.000
    300     C    9.719  -10.814   -2.066    C.ar       1    CNT1    0.000
    301     C    9.937  -12.015    0.000    C.ar       1    CNT1    0.000
    302     C    9.552  -12.015    2.739    C.ar       1    CNT1    0.000
    303     C    9.077  -12.015    4.042    C.ar       1    CNT1    0.000
    304     C    7.612  -12.015    6.387    C.ar       1    CNT1    0.000
    305     C    6.649  -12.015    7.384    C.ar       1    CNT1    0.000
    306     C    4.356  -12.015    8.931    C.ar       1    CNT1    0.000
    307     C    3.071  -12.015    9.450    C.ar       1    CNT1    0.000
    308     C    0.347  -12.015    9.930    C.ar       1    CNT1    0.000
    309     C   -1.039  -12.015    9.882    C.ar       1    CNT1    0.000
    310     C   -3.722  -12.015    9.213    C.ar       1    CNT1    0.000
    311     C   -4.968  -12.015    8.605    C.ar       1    CNT1    0.000
    312     C   -7.148  -12.015    6.902    C.ar       1    CNT1    0.000
    313     C   -8.039  -12.015    5.841    C.ar       1    CNT1    0.000
    314     C   -9.337  -12.015    3.398    C.ar       1    CNT1    0.000
    315     C   -9.719  -12.015    2.066    C.ar       1    CNT1    0.000
    316     C   -9.912  -12.015   -0.693    C.ar       1    CNT1    0.000
    317     C   -9.719  -12.015   -2.066    C.ar       1    CNT1    0.000
    318     C   -8.773  -12.015   -4.665    C.ar       1    CNT1    0.000
    319     C   -8.039  -12.015   -5.841    C.ar       1    CNT1    0.000
    320     C   -6.118  -12.015   -7.830    C.ar       1    CNT1    0.000
    321     C   -4.968  -12.015   -8.605    C.ar       1    CNT1    0.000
    322     C   -2.404  -12.015   -9.641    C.ar       1    CNT1    0.000
    323     C   -1.039  -12.015   -9.882    C.ar       1    CNT1    0.000
    324     C    1.725  -12.015   -9.786    C.ar       1    CNT1    0.000
    325     C    3.071  -12.015   -9.450    C.ar       1    CNT1    0.000
    326     C    5.556  -12.015   -8.238    C.ar       1    CNT1    0.000
    327     C    6.649  -12.015   -7.384    C.ar       1    CNT1    0.000
    328     C    8.427  -12.015   -5.266    C.ar       1    CNT1    0.000
    329     C    9.077  -12.015   -4.042    C.ar       1    CNT1    0.000
    330     C    9.840  -12.015   -1.383    C.ar       1    CNT1    0.000
    331     C    9.912  -13.217    0.693    C.ar       1    CNT1    0.000
    332     C    9.719  -13.217    2.066    C.ar       1    CNT1    0.000
    333     C    8.773  -13.217    4.665    C.ar       1    CNT1    0.000
    334     C    8.039  -13.217    5.841    C.ar       1    CNT1    0.000
    335     C    6.118  -13.217    7.830    C.ar       1    CNT1    0.000
    336     C    4.968  -13.217    8.605    C.ar       1    CNT1    0.000
    337     C    2.404  -13.217    9.641    C.ar       1    CNT1    0.000
    338     C    1.039  -13.217    9.882    C.ar       1    CNT1    0.000
    339     C   -1.725  -13.217    9.786    C.ar       1    CNT1    0.000
    340     C   -3.071  -13.217    9.450    C.ar       1    CNT1    0.000
    341     C   -5.556  -13.217    8.238    C.ar       1    CNT1    0.000
    342     C   -6.649  -13.217    7.384    C.ar       1    CNT1    0.000
    343     C   -8.427  -13.217    5.266    C.ar       1    CNT1    0.000
    344     C   -9.077  -13.217    4.042    C.ar       1    CNT1    0.000
    345     C   -9.840  -13.217    1.383    C.ar       1    CNT1    0.000
    346     C   -9.937  -13.217    0.000    C.ar       1    CNT1    0.000
    347     C   -9.552  -13.217   -2.739    C.ar       1    CNT1    0.000
    348     C   -9.077  -13.217   -4.042    C.ar       1    CNT1    0.000
    349     C   -7.612  -13.217   -6.387    C.ar       1    CNT1    0.000
    350     C   -6.649  -13.217   -7.384    C.ar       1    CNT1    0.000
    351     C   -4.356  -13.217   -8.931    C.ar       1    CNT1    0.000
    352     C   -3.071  -13.217   -9.450    C.ar       1    CNT1    0.000
    353     C   -0.347  -13.217   -9.930    C.ar       1    CNT1    0.000
    354     C    1.039  -13.217   -9.882    C.ar       1    CNT1    0.000
    355     C    3.722  -13.217   -9.213    C.ar       1    CNT1    0.000
    356     C    4.968  -13.217   -8.605    C.ar       1    CNT1    0.000
    357     C    7.148  -13.217   -6.902    C.ar       1    CNT1    0.000
    358     C    8.039  -13.217   -5.841    C.ar       1    CNT1    0.000
    359     C    9.337  -13.217   -3.398    C.ar       1    CNT1    0.000
    360     C    9.719  -13.217   -2.066    C.ar       1    CNT1    0.000
    361     C    9.937  -14.418    0.000    C.ar       1    CNT1    0.000
    362     C    9.552  -14.418    2.739    C.ar       1    CNT1    0.000
    363     C    9.077  -14.418    4.042    C.ar       1    CNT1    0.000
    364     C    7.612  -14.418    6.387    C.ar       1    CNT1    0.000
    365     C    6.649  -14.418    7.384    C.ar       1    CNT1    0.000
    366     C    4.356  -14.418    8.931    C.ar       1    CNT1    0.000
    367     C    3.071  -14.418    9.450    C.ar       1    CNT1    0.000
    368     C    0.347  -14.418    9.930    C.ar       1    CNT1    0.000
    369     C   -1.039  -14.418    9.882    C.ar       1    CNT1    0.000
    370     C   -3.722  -14.418    9.213    C.ar       1    CNT1    0.000
    371     C   -4.968  -14.418    8.605    C.ar       1    CNT1    0.000
    372     C   -7.148  -14.418    6.902    C.ar       1    CNT1    0.000
    373     C   -8.039  -14.418    5.841    C.ar       1    CNT1    0.000
    374     C   -9.337  -14.418    3.398    C.ar       1    CNT1    0.000
    375     C   -9.719  -14.418    2.066    C.ar       1    CNT1    0.000
    376     C   -9.912  -14.418   -0.693    C.ar       1    CNT1    0.000
    377     C   -9.719  -14.418   -2.066    C.ar       1    CNT1    0.000
    378     C   -8.773  -14.418   -4.665    C.ar       1    CNT1    0.000
    379     C   -8.039  -14.418   -5.841    C.ar       1    CNT1    0.000
    380     C   -6.118  -14.418   -7.830    C.ar       1    CNT1    0.000
    381     C   -4.968  -14.418   -8.605    C.ar       1    CNT1    0.000
    382     C   -2.404  -14.418   -9.641    C.ar       1    CNT1    0.000
    383     C   -1.039  -14.418   -9.882    C.ar       1    CNT1    0.000
    384     C    1.725  -14.418   -9.786    C.ar       1    CNT1    0.000
    385     C    3.071  -14.418   -9.450    C.ar       1    CNT1    0.000
    386     C    5.556  -14.418   -8.238    C.ar       1    CNT1    0.000
    387     C    6.649  -14.418   -7.384    C.ar       1    CNT1    0.000
    388     C    8.427  -14.418   -5.266    C.ar       1    CNT1    0.000
    389     C    9.077  -14.418   -4.042    C.ar       1    CNT1    0.000
    390     C    9.840  -14.418   -1.383    C.ar       1    CNT1    0.000
    391     C    9.912  -15.620    0.693    C.ar       1    CNT1    0.000
    392     C    9.719  -15.620    2.066    C.ar       1    CNT1    0.000
    393     C    8.773  -15.620    4.665    C.ar       1    CNT1    0.000
    394     C    8.039  -15.620    5.841    C.ar       1    CNT1    0.000
    395     C    6.118  -15.620    7.830    C.ar       1    CNT1    0.000
    396     C    4.968  -15.620    8.605    C.ar       1    CNT1    0.000
    397     C    2.404  -15.620    9.641    C.ar       1    CNT1    0.000
    398     C    1.039  -15.620    9.882    C.ar       1    CNT1    0.000
    399     C   -1.725  -15.620    9.786    C.ar       1    CNT1    0.000
    400     C   -3.071  -15.620    9.450    C.ar       1    CNT1    0.000
    401     C   -5.556  -15.620    8.238    C.ar       1    CNT1    0.000
    402     C   -6.649  -15.620    7.384    C.ar       1    CNT1    0.000
    403     C   -8.427  -15.620    5.266    C.ar       1    CNT1    0.000
    404     C   -9.077  -15.620    4.042    C.ar       1    CNT1    0.000
    405     C   -9.840  -15.620    1.383    C.ar       1    CNT1    0.000
    406     C   -9.937  -15.620    0.000    C.ar       1    CNT1    0.000
    407     C   -9.552  -15.620   -2.739    C.ar       1    CNT1    0.000
    408     C   -9.077  -15.620   -4.042    C.ar       1    CNT1    0.000
    409     C   -7.612  -15.620   -6.387    C.ar       1    CNT1    0.000
    410     C   -6.649  -15.620   -7.384    C.ar       1    CNT1    0.000
    411     C   -4.356  -15.620   -8.931    C.ar       1    CNT1    0.000
    412     C   -3.071  -15.620   -9.450    C.ar       1    CNT1    0.000
    413     C   -0.347  -15.620   -9.930    C.ar       1    CNT1    0.000
    414     C    1.039  -15.620   -9.882    C.ar       1    CNT1    0.000
    415     C    3.722  -15.620   -9.213    C.ar       1    CNT1    0.000
    416     C    4.968  -15.620   -8.605    C.ar       1    CNT1    0.000
    417     C    7.148  -15.620   -6.902    C.ar       1    CNT1    0.000
    418     C    8.039  -15.620   -5.841    C.ar       1    CNT1    0.000
    419     C    9.337  -15.620   -3.398    C.ar       1    CNT1    0.000
    420     C    9.719  -15.620   -2.066    C.ar       1    CNT1    0.000
    421     C    9.937  -16.821    0.000    C.ar       1    CNT1    0.000
    422     C    9.552  -16.821    2.739    C.ar       1    CNT1    0.000
    423     C    9.077  -16.821    4.042    C.ar       1    CNT1    0.000
    424     C    7.612  -16.821    6.387    C.ar       1    CNT1    0.000
    425     C    6.649  -16.821    7.384    C.ar       1    CNT1    0.000
    426     C    4.356  -16.821    8.931    C.ar       1    CNT1    0.000
    427     C    3.071  -16.821    9.450    C.ar       1    CNT1    0.000
    428     C    0.347  -16.821    9.930    C.ar       1    CNT1    0.000
    429     C   -1.039  -16.821    9.882    C.ar       1    CNT1    0.000
    430     C   -3.722  -16.821    9.213    C.ar       1    CNT1    0.000
    431     C   -4.968  -16.821    8.605    C.ar       1    CNT1    0.000
    432     C   -7.148  -16.821    6.902    C.ar       1    CNT1    0.000
    433     C   -8.039  -16.821    5.841    C.ar       1    CNT1    0.000
    434     C   -9.337  -16.821    3.398    C.ar       1    CNT1    0.000
    435     C   -9.719  -16.821    2.066    C.ar       1    CNT1    0.000
    436     C   -9.912  -16.821   -0.693    C.ar       1    CNT1    0.000
    437     C   -9.719  -16.821   -2.066    C.ar       1    CNT1    0.000
    438     C   -8.773  -16.821   -4.665    C.ar       1    CNT1    0.000
    439     C   -8.039  -16.821   -5.841    C.ar       1    CNT1    0.000
    440     C   -6.118  -16.821   -7.830    C.ar       1    CNT1    0.000
    441     C   -4.968  -16.821   -8.605    C.ar       1    CNT1    0.000
    442     C   -2.404  -16.821   -9.641    C.ar       1    CNT1    0.000
    443     C   -1.039  -16.821   -9.882    C.ar       1    CNT1    0.000
    444     C    1.725  -16.821   -9.786    C.ar       1    CNT1    0.000
    445     C    3.071  -16.821   -9.450    C.ar       1    CNT1    0.000
    446     C    5.556  -16.821   -8.238    C.ar       1    CNT1    0.000
    447     C    6.649  -16.821   -7.384    C.ar       1    CNT1    0.000
    448     C    8.427  -16.821   -5.266    C.ar       1    CNT1    0.000
    449     C    9.077  -16.821   -4.042    C.ar       1    CNT1    0.000
    450     C    9.840  -16.821   -1.383    C.ar       1    CNT1    0.000
    451     C    9.912  -18.023    0.693    C.ar       1    CNT1    0.000
    452     C    9.719  -18.023    2.066    C.ar       1    CNT1    0.000
    453     C    8.773  -18.023    4.665    C.ar       1    CNT1    0.000
    454     C    8.039  -18.023    5.841    C.ar       1    CNT1    0.000
    455     C    6.118  -18.023    7.830    C.ar       1    CNT1    0.000
    456     C    4.968  -18.023    8.605    C.ar       1    CNT1    0.000
    457     C    2.404  -18.023    9.641    C.ar       1    CNT1    0.000
    458     C    1.039  -18.023    9.882    C.ar       1    CNT1    0.000
    459     C   -1.725  -18.023    9.786    C.ar       1    CNT1    0.000
    460     C   -3.071  -18.023    9.450    C.ar       1    CNT1    0.000
    461     C   -5.556  -18.023    8.238    C.ar       1    CNT1    0.000
    462     C   -6.649  -18.023    7.384    C.ar       1    CNT1    0.000
    463     C   -8.427  -18.023    5.266    C.ar       1    CNT1    0.000
    464     C   -9.077  -18.023    4.042    C.ar       1    CNT1    0.000
    465     C   -9.840  -18.023    1.383    C.ar       1    CNT1    0.000
    466     C   -9.937  -18.023    0.000    C.ar       1    CNT1    0.000
    467     C   -9.552  -18.023   -2.739    C.ar       1    CNT1    0.000
    468     C   -9.077  -18.023   -4.042    C.ar       1    CNT1    0.000
    469     C   -7.612  -18.023   -6.387    C.ar       1    CNT1    0.000
    470     C   -6.649  -18.023   -7.384    C.ar       1    CNT1    0.000
    471     C   -4.356  -18.023   -8.931    C.ar       1    CNT1    0.000
    472     C   -3.071  -18.023   -9.450    C.ar       1    CNT1    0.000
    473     C   -0.347  -18.023   -9.930    C.ar       1    CNT1    0.000
    474     C    1.039  -18.023   -9.882    C.ar       1    CNT1    0.000
    475     C    3.722  -18.023   -9.213    C.ar       1    CNT1    0.000
    476     C    4.968  -18.023   -8.605    C.ar       1    CNT1    0.000
    477     C    7.148  -18.023   -6.902    C.ar       1    CNT1    0.000
    478     C    8.039  -18.023   -5.841    C.ar       1    CNT1    0.000
    479     C    9.337  -18.023   -3.398    C.ar       1    CNT1    0.000
    480     C    9.719  -18.023   -2.066    C.ar       1    CNT1    0.000
    481     C    9.937  -19.224    0.000    C.ar       1    CNT1    0.000
    482     C    9.552  -19.224    2.739    C.ar       1    CNT1    0.000
    483     C    9.077  -19.224    4.042    C.ar       1    CNT1    0.000
    484     C    7.612  -19.224    6.387    C.ar       1    CNT1    0.000
    485     C    6.649  -19.224    7.384    C.ar       1    CNT1    0.000
    486     C    4.356  -19.224    8.931    C.ar       1    CNT1    0.000
    487     C    3.071  -19.224    9.450    C.ar       1    CNT1    0.000
    488     C    0.347  -19.224    9.930    C.ar       1    CNT1    0.000
    489     C   -1.039  -19.224    9.882    C.ar       1    CNT1    0.000
    490     C   -3.722  -19.224    9.213    C.ar       1    CNT1    0.000
    491     C   -4.968  -19.224    8.605    C.ar       1    CNT1    0.000
    492     C   -7.148  -19.224    6.902    C.ar       1    CNT1    0.000
    493     C   -8.039  -19.224    5.841    C.ar       1    CNT1    0.000
    494     C   -9.337  -19.224    3.398    C.ar       1    CNT1    0.000
    495     C   -9.719  -19.224    2.066    C.ar       1    CNT1    0.000
    496     C   -9.912  -19.224   -0.693    C.ar       1    CNT1    0.000
    497     C   -9.719  -19.224   -2.066    C.ar       1    CNT1    0.000
    498     C   -8.773  -19.224   -4.665    C.ar       1    CNT1    0.000
    499     C   -8.039  -19.224   -5.841    C.ar       1    CNT1    0.000
    500     C   -6.118  -19.224   -7.830    C.ar       1    CNT1    0.000
    501     C   -4.968  -19.224   -8.605    C.ar       1    CNT1    0.000
    502     C   -2.404  -19.224   -9.641    C.ar       1    CNT1    0.000
    503     C   -1.039  -19.224   -9.882    C.ar       1    CNT1    0.000
    504     C    1.725  -19.224   -9.786    C.ar       1    CNT1    0.000
    505     C    3.071  -19.224   -9.450    C.ar       1    CNT1    0.000
    506     C    5.556  -19.224   -8.238    C.ar       1    CNT1    0.000
    507     C    6.649  -19.224   -7.384    C.ar       1    CNT1    0.000
    508     C    8.427  -19.224   -5.266    C.ar       1    CNT1    0.000
    509     C    9.077  -19.224   -4.042    C.ar       1    CNT1    0.000
    510     C    9.840  -19.224   -1.383    C.ar       1    CNT1    0.000
    511     C    9.912  -20.426    0.693    C.ar       1    CNT1    0.000
    512     C    9.719  -20.426    2.066    C.ar       1    CNT1    0.000
    513     C    8.773  -20.426    4.665    C.ar       1    CNT1    0.000
    514     C    8.039  -20.426    5.841    C.ar       1    CNT1    0.000
    515     C    6.118  -20.426    7.830    C.ar       1    CNT1    0.000
    516     C    4.968  -20.426    8.605    C.ar       1    CNT1    0.000
    517     C    2.404  -20.426    9.641    C.ar       1    CNT1    0.000
    518     C    1.039  -20.426    9.882    C.ar       1    CNT1    0.000
    519     C   -1.725  -20.426    9.786    C.ar       1    CNT1    0.000
    520     C   -3.071  -20.426    9.450    C.ar       1    CNT1    0.000
    521     C   -5.556  -20.426    8.238    C.ar       1    CNT1    0.000
    522     C   -6.649  -20.426    7.384    C.ar       1    CNT1    0.000
    523     C   -8.427  -20.426    5.266    C.ar       1    CNT1    0.000
    524     C   -9.077  -20.426    4.042    C.ar       1    CNT1    0.000
    525     C   -9.840  -20.426    1.383    C.ar       1    CNT1    0.000
    526     C   -9.937  -20.426    0.000    C.ar       1    CNT1    0.000
    527     C   -9.552  -20.426   -2.739    C.ar       1    CNT1    0.000
    528     C   -9.077  -20.426   -4.042    C.ar       1    CNT1    0.000
    529     C   -7.612  -20.426   -6.387    C.ar       1    CNT1    0.000
    530     C   -6.649  -20.426   -7.384    C.ar       1    CNT1    0.000
    531     C   -4.356  -20.426   -8.931    C.ar       1    CNT1    0.000
    532     C   -3.071  -20.426   -9.450    C.ar       1    CNT1    0.000
    533     C   -0.347  -20.426   -9.930    C.ar       1    CNT1    0.000
    534     C    1.039  -20.426   -9.882    C.ar       1    CNT1    0.000
    535     C    3.722  -20.426   -9.213    C.ar       1    CNT1    0.000
    536     C    4.968  -20.426   -8.605    C.ar       1    CNT1    0.000
    537     C    7.148  -20.426   -6.902    C.ar       1    CNT1    0.000
    538     C    8.039  -20.426   -5.841    C.ar       1    CNT1    0.000
    539     C    9.337  -20.426   -3.398    C.ar       1    CNT1    0.000
    540     C    9.719  -20.426   -2.066    C.ar       1    CNT1    0.000
    541     C    9.937  -21.627    0.000    C.ar       1    CNT1    0.000
    542     C    9.552  -21.627    2.739    C.ar       1    CNT1    0.000
    543     C    9.077  -21.627    4.042    C.ar       1    CNT1    0.000
    544     C    7.612  -21.627    6.387    C.ar       1    CNT1    0.000
    545     C    6.649  -21.627    7.384    C.ar       1    CNT1    0.000
    546     C    4.356  -21.627    8.931    C.ar       1    CNT1    0.000
    547     C    3.071  -21.627    9.450    C.ar       1    CNT1    0.000
    548     C    0.347  -21.627    9.930    C.ar       1    CNT1    0.000
    549     C   -1.039  -21.627    9.882    C.ar       1    CNT1    0.000
    550     C   -3.722  -21.627    9.213    C.ar       1    CNT1    0.000
    551     C   -4.968  -21.627    8.605    C.ar       1    CNT1    0.000
    552     C   -7.148  -21.627    6.902    C.ar       1    CNT1    0.000
    553     C   -8.039  -21.627    5.841    C.ar       1    CNT1    0.000
    554     C   -9.337  -21.627    3.398    C.ar       1    CNT1    0.000
    555     C   -9.719  -21.627    2.066    C.ar       1    CNT1    0.000
    556     C   -9.912  -21.627   -0.693    C.ar       1    CNT1    0.000
    557     C   -9.719  -21.627   -2.066    C.ar       1    CNT1    0.000
    558     C   -8.773  -21.627   -4.665    C.ar       1    CNT1    0.000
    559     C   -8.039  -21.627   -5.841    C.ar       1    CNT1    0.000
    560     C   -6.118  -21.627   -7.830    C.ar       1    CNT1    0.000
    561     C   -4.968  -21.627   -8.605    C.ar       1    CNT1    0.000
    562     C   -2.404  -21.627   -9.641    C.ar       1    CNT1    0.000
    563     C   -1.039  -21.627   -9.882    C.ar       1    CNT1    0.000
    564     C    1.725  -21.627   -9.786    C.ar       1    CNT1    0.000
    565     C    3.071  -21.627   -9.450    C.ar       1    CNT1    0.000
    566     C    5.556  -21.627   -8.238    C.ar       1    CNT1    0.000
    567     C    6.649  -21.627   -7.384    C.ar       1    CNT1    0.000
    568     C    8.427  -21.627   -5.266    C.ar       1    CNT1    0.000
    569     C    9.077  -21.627   -4.042    C.ar       1    CNT1    0.000
    570     C    9.840  -21.627   -1.383    C.ar       1    CNT1    0.000
    571     C    9.912  -22.829    0.693    C.ar       1    CNT1    0.000
    572     C    9.719  -22.829    2.066    C.ar       1    CNT1    0.000
    573     C    8.773  -22.829    4.665    C.ar       1    CNT1    0.000
    574     C    8.039  -22.829    5.841    C.ar       1    CNT1    0.000
    575     C    6.118  -22.829    7.830    C.ar       1    CNT1    0.000
    576     C    4.968  -22.829    8.605    C.ar       1    CNT1    0.000
    577     C    2.404  -22.829    9.641    C.ar       1    CNT1    0.000
    578     C    1.039  -22.829    9.882    C.ar       1    CNT1    0.000
    579     C   -1.725  -22.829    9.786    C.ar       1    CNT1    0.000
    580     C   -3.071  -22.829    9.450    C.ar       1    CNT1    0.000
    581     C   -5.556  -22.829    8.238    C.ar       1    CNT1    0.000
    582     C   -6.649  -22.829    7.384    C.ar       1    CNT1    0.000
    583     C   -8.427  -22.829    5.266    C.ar       1    CNT1    0.000
    584     C   -9.077  -22.829    4.042    C.ar       1    CNT1    0.000
    585     C   -9.840  -22.829    1.383    C.ar       1    CNT1    0.000
    586     C   -9.937  -22.829    0.000    C.ar       1    CNT1    0.000
    587     C   -9.552  -22.829   -2.739    C.ar       1    CNT1    0.000
    588     C   -9.077  -22.829   -4.042    C.ar       1    CNT1    0.000
    589     C   -7.612  -22.829   -6.387    C.ar       1    CNT1    0.000
    590     C   -6.649  -22.829   -7.384    C.ar       1    CNT1    0.000
    591     C   -4.356  -22.829   -8.931    C.ar       1    CNT1    0.000
    592     C   -3.071  -22.829   -9.450    C.ar       1    CNT1    0.000
    593     C   -0.347  -22.829   -9.930    C.ar       1    CNT1    0.000
    594     C    1.039  -22.829   -9.882    C.ar       1    CNT1    0.000
    595     C    3.722  -22.829   -9.213    C.ar       1    CNT1    0.000
    596     C    4.968  -22.829   -8.605    C.ar       1    CNT1    0.000
    597     C    7.148  -22.829   -6.902    C.ar       1    CNT1    0.000
    598     C    8.039  -22.829   -5.841    C.ar       1    CNT1    0.000
    599     C    9.337  -22.829   -3.398    C.ar       1    CNT1    0.000
    600     C    9.719  -22.829   -2.066    C.ar       1    CNT1    0.000
    601     C    9.937  -24.030    0.000    C.ar       1    CNT1    0.000
    602     C    9.552  -24.030    2.739    C.ar       1    CNT1    0.000
    603     C    9.077  -24.030    4.042    C.ar       1    CNT1    0.000
    604     C    7.612  -24.030    6.387    C.ar       1    CNT1    0.000
    605     C    6.649  -24.030    7.384    C.ar       1    CNT1    0.000
    606     C    4.356  -24.030    8.931    C.ar       1    CNT1    0.000
    607     C    3.071  -24.030    9.450    C.ar       1    CNT1    0.000
    608     C    0.347  -24.030    9.930    C.ar       1    CNT1    0.000
    609     C   -1.039  -24.030    9.882    C.ar       1    CNT1    0.000
    610     C   -3.722  -24.030    9.213    C.ar       1    CNT1    0.000
    611     C   -4.968  -24.030    8.605    C.ar       1    CNT1    0.000
    612     C   -7.148  -24.030    6.902    C.ar       1    CNT1    0.000
    613     C   -8.039  -24.030    5.841    C.ar       1    CNT1    0.000
    614     C   -9.337  -24.030    3.398    C.ar       1    CNT1    0.000
    615     C   -9.719  -24.030    2.066    C.ar       1    CNT1    0.000
    616     C   -9.912  -24.030   -0.693    C.ar       1    CNT1    0.000
    617     C   -9.719  -24.030   -2.066    C.ar       1    CNT1    0.000
    618     C   -8.773  -24.030   -4.665    C.ar       1    CNT1    0.000
    619     C   -8.039  -24.030   -5.841    C.ar       1    CNT1    0.000
    620     C   -6.118  -24.030   -7.830    C.ar       1    CNT1    0.000
    621     C   -4.968  -24.030   -8.605    C.ar       1    CNT1    0.000
    622     C   -2.404  -24.030   -9.641    C.ar       1    CNT1    0.000
    623     C   -1.039  -24.030   -9.882    C.ar       1    CNT1    0.000
    624     C    1.725  -24.030   -9.786    C.ar       1    CNT1    0.000
    625     C    3.071  -24.030   -9.450    C.ar       1    CNT1    0.000
    626     C    5.556  -24.030   -8.238    C.ar       1    CNT1    0.000
    627     C    6.649  -24.030   -7.384    C.ar       1    CNT1    0.000
    628     C    8.427  -24.030   -5.266    C.ar       1    CNT1    0.000
    629     C    9.077  -24.030   -4.042    C.ar       1    CNT1    0.000
    630     C    9.840  -24.030   -1.383    C.ar       1    CNT1    0.000
    631     C    9.912  -25.232    0.693    C.ar       1    CNT1    0.000
    632     C    9.719  -25.232    2.066    C.ar       1    CNT1    0.000
    633     C    8.773  -25.232    4.665    C.ar       1    CNT1    0.000
    634     C    8.039  -25.232    5.841    C.ar       1    CNT1    0.000
    635     C    6.118  -25.232    7.830    C.ar       1    CNT1    0.000
    636     C    4.968  -25.232    8.605    C.ar       1    CNT1    0.000
    637     C    2.404  -25.232    9.641    C.ar       1    CNT1    0.000
    638     C    1.039  -25.232    9.882    C.ar       1    CNT1    0.000
    639     C   -1.725  -25.232    9.786    C.ar       1    CNT1    0.000
    640     C   -3.071  -25.232    9.450    C.ar       1    CNT1    0.000
    641     C   -5.556  -25.232    8.238    C.ar       1    CNT1    0.000
    642     C   -6.649  -25.232    7.384    C.ar       1    CNT1    0.000
    643     C   -8.427  -25.232    5.266    C.ar       1    CNT1    0.000
    644     C   -9.077  -25.232    4.042    C.ar       1    CNT1    0.000
    645     C   -9.840  -25.232    1.383    C.ar       1    CNT1    0.000
    646     C   -9.937  -25.232    0.000    C.ar       1    CNT1    0.000
    647     C   -9.552  -25.232   -2.739    C.ar       1    CNT1    0.000
    648     C   -9.077  -25.232   -4.042    C.ar       1    CNT1    0.000
    649     C   -7.612  -25.232   -6.387    C.ar       1    CNT1    0.000
    650     C   -6.649  -25.232   -7.384    C.ar       1    CNT1    0.000
    651     C   -4.356  -25.232   -8.931    C.ar       1    CNT1    0.000
    652     C   -3.071  -25.232   -9.450    C.ar       1    CNT1    0.000
    653     C   -0.347  -25.232   -9.930    C.ar       1    CNT1    0.000
    654     C    1.039  -25.232   -9.882    C.ar       1    CNT1    0.000
    655     C    3.722  -25.232   -9.213    C.ar       1    CNT1    0.000
    656     C    4.968  -25.232   -8.605    C.ar       1    CNT1    0.000
    657     C    7.148  -25.232   -6.902    C.ar       1    CNT1    0.000
    658     C    8.039  -25.232   -5.841    C.ar       1    CNT1    0.000
    659     C    9.337  -25.232   -3.398    C.ar       1    CNT1    0.000
    660     C    9.719  -25.232   -2.066    C.ar       1    CNT1    0.000
    661     C    9.937  -26.434    0.000    C.ar       1    CNT1    0.000
    662     C    9.552  -26.434    2.739    C.ar       1    CNT1    0.000
    663     C    9.077  -26.434    4.042    C.ar       1    CNT1    0.000
    664     C    7.612  -26.434    6.387    C.ar       1    CNT1    0.000
    665     C    6.649  -26.434    7.384    C.ar       1    CNT1    0.000
    666     C    4.356  -26.434    8.931    C.ar       1    CNT1    0.000
    667     C    3.071  -26.434    9.450    C.ar       1    CNT1    0.000
    668     C    0.347  -26.434    9.930    C.ar       1    CNT1    0.000
    669     C   -1.039  -26.434    9.882    C.ar       1    CNT1    0.000
    670     C   -3.722  -26.434    9.213    C.ar       1    CNT1    0.000
    671     C   -4.968  -26.434    8.605    C.ar       1    CNT1    0.000
    672     C   -7.148  -26.434    6.902    C.ar       1    CNT1    0.000
    673     C   -8.039  -26.434    5.841    C.ar       1    CNT1    0.000
    674     C   -9.337  -26.434    3.398    C.ar       1    CNT1    0.000
    675     C   -9.719  -26.434    2.066    C.ar       1    CNT1    0.000
    676     C   -9.912  -26.434   -0.693    C.ar       1    CNT1    0.000
    677     C   -9.719  -26.434   -2.066    C.ar       1    CNT1    0.000
    678     C   -8.773  -26.434   -4.665    C.ar       1    CNT1    0.000
    679     C   -8.039  -26.434   -5.841    C.ar       1    CNT1    0.000
    680     C   -6.118  -26.434   -7.830    C.ar       1    CNT1    0.000
    681     C   -4.968  -26.434   -8.605    C.ar       1    CNT1    0.000
    682     C   -2.404  -26.434   -9.641    C.ar       1    CNT1    0.000
    683     C   -1.039  -26.434   -9.882    C.ar       1    CNT1    0.000
    684     C    1.725  -26.434   -9.786    C.ar       1    CNT1    0.000
    685     C    3.071  -26.434   -9.450    C.ar       1    CNT1    0.000
    686     C    5.556  -26.434   -8.238    C.ar       1    CNT1    0.000
    687     C    6.649  -26.434   -7.384    C.ar       1    CNT1    0.000
    688     C    8.427  -26.434   -5.266    C.ar       1    CNT1    0.000
    689     C    9.077  -26.434   -4.042    C.ar       1    CNT1    0.000
    690     C    9.840  -26.434   -1.383    C.ar       1    CNT1    0.000
    691     C    9.912  -27.635    0.693    C.ar       1    CNT1    0.000
    692     C    9.719  -27.635    2.066    C.ar       1    CNT1    0.000
    693     C    8.773  -27.635    4.665    C.ar       1    CNT1    0.000
    694     C    8.039  -27.635    5.841    C.ar       1    CNT1    0.000
    695     C    6.118  -27.635    7.830    C.ar       1    CNT1    0.000
    696     C    4.968  -27.635    8.605    C.ar       1    CNT1    0.000
    697     C    2.404  -27.635    9.641    C.ar       1    CNT1    0.000
    698     C    1.039  -27.635    9.882    C.ar       1    CNT1    0.000
    699     C   -1.725  -27.635    9.786    C.ar       1    CNT1    0.000
    700     C   -3.071  -27.635    9.450    C.ar       1    CNT1    0.000
    701     C   -5.556  -27.635    8.238    C.ar       1    CNT1    0.000
    702     C   -6.649  -27.635    7.384    C.ar       1    CNT1    0.000
    703     C   -8.427  -27.635    5.266    C.ar       1    CNT1    0.000
    704     C   -9.077  -27.635    4.042    C.ar       1    CNT1    0.000
    705     C   -9.840  -27.635    1.383    C.ar       1    CNT1    0.000
    706     C   -9.937  -27.635    0.000    C.ar       1    CNT1    0.000
    707     C   -9.552  -27.635   -2.739    C.ar       1    CNT1    0.000
    708     C   -9.077  -27.635   -4.042    C.ar       1    CNT1    0.000
    709     C   -7.612  -27.635   -6.387    C.ar       1    CNT1    0.000
    710     C   -6.649  -27.635   -7.384    C.ar       1    CNT1    0.000
    711     C   -4.356  -27.635   -8.931    C.ar       1    CNT1    0.000
    712     C   -3.071  -27.635   -9.450    C.ar       1    CNT1    0.000
    713     C   -0.347  -27.635   -9.930    C.ar       1    CNT1    0.000
    714     C    1.039  -27.635   -9.882    C.ar       1    CNT1    0.000
    715     C    3.722  -27.635   -9.213    C.ar       1    CNT1    0.000
    716     C    4.968  -27.635   -8.605    C.ar       1    CNT1    0.000
    717     C    7.148  -27.635   -6.902    C.ar       1    CNT1    0.000
    718     C    8.039  -27.635   -5.841    C.ar       1    CNT1    0.000
    719     C    9.337  -27.635   -3.398    C.ar       1    CNT1    0.000
    720     C    9.719  -27.635   -2.066    C.ar       1    CNT1    0.000
    721     C    9.937  -28.837    0.000    C.ar       1    CNT1    0.000
    722     C    9.552  -28.837    2.739    C.ar       1    CNT1    0.000
    723     C    9.077  -28.837    4.042    C.ar       1    CNT1    0.000
    724     C    7.612  -28.837    6.387    C.ar       1    CNT1    0.000
    725     C    6.649  -28.837    7.384    C.ar       1    CNT1    0.000
    726     C    4.356  -28.837    8.931    C.ar       1    CNT1    0.000
    727     C    3.071  -28.837    9.450    C.ar       1    CNT1    0.000
    728     C    0.347  -28.837    9.930    C.ar       1    CNT1    0.000
    729     C   -1.039  -28.837    9.882    C.ar       1    CNT1    0.000
    730     C   -3.722  -28.837    9.213    C.ar       1    CNT1    0.000
    731     C   -4.968  -28.837    8.605    C.ar       1    CNT1    0.000
    732     C   -7.148  -28.837    6.902    C.ar       1    CNT1    0.000
    733     C   -8.039  -28.837    5.841    C.ar       1    CNT1    0.000
    734     C   -9.337  -28.837    3.398    C.ar       1    CNT1    0.000
    735     C   -9.719  -28.837    2.066    C.ar       1    CNT1    0.000
    736     C   -9.912  -28.837   -0.693    C.ar       1    CNT1    0.000
    737     C   -9.719  -28.837   -2.066    C.ar       1    CNT1    0.000
    738     C   -8.773  -28.837   -4.665    C.ar       1    CNT1    0.000
    739     C   -8.039  -28.837   -5.841    C.ar       1    CNT1    0.000
    740     C   -6.118  -28.837   -7.830    C.ar       1    CNT1    0.000
    741     C   -4.968  -28.837   -8.605    C.ar       1    CNT1    0.000
    742     C   -2.404  -28.837   -9.641    C.ar       1    CNT1    0.000
    743     C   -1.039  -28.837   -9.882    C.ar       1    CNT1    0.000
    744     C    1.725  -28.837   -9.786    C.ar       1    CNT1    0.000
    745     C    3.071  -28.837   -9.450    C.ar       1    CNT1    0.000
    746     C    5.556  -28.837   -8.238    C.ar       1    CNT1    0.000
    747     C    6.649  -28.837   -7.384    C.ar       1    CNT1    0.000
    748     C    8.427  -28.837   -5.266    C.ar       1    CNT1    0.000
    749     C    9.077  -28.837   -4.042    C.ar       1    CNT1    0.000
    750     C    9.840  -28.837   -1.383    C.ar       1    CNT1    0.000
    751     C    9.912  -30.038    0.693    C.ar       1    CNT1    0.000
    752     C    9.719  -30.038    2.066    C.ar       1    CNT1    0.000
    753     C    8.773  -30.038    4.665    C.ar       1    CNT1    0.000
    754     C    8.039  -30.038    5.841    C.ar       1    CNT1    0.000
    755     C    6.118  -30.038    7.830    C.ar       1    CNT1    0.000
    756     C    4.968  -30.038    8.605    C.ar       1    CNT1    0.000
    757     C    2.404  -30.038    9.641    C.ar       1    CNT1    0.000
    758     C    1.039  -30.038    9.882    C.ar       1    CNT1    0.000
    759     C   -1.725  -30.038    9.786    C.ar       1    CNT1    0.000
    760     C   -3.071  -30.038    9.450    C.ar       1    CNT1    0.000
    761     C   -5.556  -30.038    8.238    C.ar       1    CNT1    0.000
    762     C   -6.649  -30.038    7.384    C.ar       1    CNT1    0.000
    763     C   -8.427  -30.038    5.266    C.ar       1    CNT1    0.000
    764     C   -9.077  -30.038    4.042    C.ar       1    CNT1    0.000
    765     C   -9.840  -30.038    1.383    C.ar       1    CNT1    0.000
    766     C   -9.937  -30.038    0.000    C.ar       1    CNT1    0.000
    767     C   -9.552  -30.038   -2.739    C.ar       1    CNT1    0.000
    768     C   -9.077  -30.038   -4.042    C.ar       1    CNT1    0.000
    769     C   -7.612  -30.038   -6.387    C.ar       1    CNT1    0.000
    770     C   -6.649  -30.038   -7.384    C.ar       1    CNT1    0.000
    771     C   -4.356  -30.038   -8.931    C.ar       1    CNT1    0.000
    772     C   -3.071  -30.038   -9.450    C.ar       1    CNT1    0.000
    773     C   -0.347  -30.038   -9.930    C.ar       1    CNT1    0.000
    774     C    1.039  -30.038   -9.882    C.ar       1    CNT1    0.000
    775     C    3.722  -30.038   -9.213    C.ar       1    CNT1    0.000
    776     C    4.968  -30.038   -8.605    C.ar       1    CNT1    0.000
    777     C    7.148  -30.038   -6.902    C.ar       1    CNT1    0.000
    778     C    8.039  -30.038   -5.841    C.ar       1    CNT1    0.000
    779     C    9.337  -30.038   -3.398    C.ar       1    CNT1    0.000
    780     C    9.719  -30.038   -2.066    C.ar       1    CNT1    0.000
    781     C    9.937  -31.240    0.000    C.ar       1    CNT1    0.000
    782     C    9.552  -31.240    2.739    C.ar       1    CNT1    0.000
    783     C    9.077  -31.240    4.042    C.ar       1    CNT1    0.000
    784     C    7.612  -31.240    6.387    C.ar       1    CNT1    0.000
    785     C    6.649  -31.240    7.384    C.ar       1    CNT1    0.000
    786     C    4.356  -31.240    8.931    C.ar       1    CNT1    0.000
    787     C    3.071  -31.240    9.450    C.ar       1    CNT1    0.000
    788     C    0.347  -31.240    9.930    C.ar       1    CNT1    0.000
    789     C   -1.039  -31.240    9.882    C.ar       1    CNT1    0.000
    790     C   -3.722  -31.240    9.213    C.ar       1    CNT1    0.000
    791     C   -4.968  -31.240    8.605    C.ar       1    CNT1    0.000
    792     C   -7.148  -31.240    6.902    C.ar       1    CNT1    0.000
    793     C   -8.039  -31.240    5.841    C.ar       1    CNT1    0.000
    794     C   -9.337  -31.240    3.398    C.ar       1    CNT1    0.000
    795     C   -9.719  -31.240    2.066    C.ar       1    CNT1    0.000
    796     C   -9.912  -31.240   -0.693    C.ar       1    CNT1    0.000
    797     C   -9.719  -31.240   -2.066    C.ar       1    CNT1    0.000
    798     C   -8.773  -31.240   -4.665    C.ar       1    CNT1    0.000
    799     C   -8.039  -31.240   -5.841    C.ar       1    CNT1    0.000
    800     C   -6.118  -31.240   -7.830    C.ar       1    CNT1    0.000
    801     C   -4.968  -31.240   -8.605    C.ar       1    CNT1    0.000
    802     C   -2.404  -31.240   -9.641    C.ar       1    CNT1    0.000
    803     C   -1.039  -31.240   -9.882    C.ar       1    CNT1    0.000
    804     C    1.725  -31.240   -9.786    C.ar       1    CNT1    0.000
    805     C    3.071  -31.240   -9.450    C.ar       1    CNT1    0.000
    806     C    5.556  -31.240   -8.238    C.ar       1    CNT1    0.000
    807     C    6.649  -31.240   -7.384    C.ar       1    CNT1    0.000
    808     C    8.427  -31.240   -5.266    C.ar       1    CNT1    0.000
    809     C    9.077  -31.240   -4.042    C.ar       1    CNT1    0.000
    810     C    9.840  -31.240   -1.383    C.ar       1    CNT1    0.000
    811     C    9.912  -32.441    0.693    C.ar       1    CNT1    0.000
    812     C    9.719  -32.441    2.066    C.ar       1    CNT1    0.000
    813     C    8.773  -32.441    4.665    C.ar       1    CNT1    0.000
    814     C    8.039  -32.441    5.841    C.ar       1    CNT1    0.000
    815     C    6.118  -32.441    7.830    C.ar       1    CNT1    0.000
    816     C    4.968  -32.441    8.605    C.ar       1    CNT1    0.000
    817     C    2.404  -32.441    9.641    C.ar       1    CNT1    0.000
    818     C    1.039  -32.441    9.882    C.ar       1    CNT1    0.000
    819     C   -1.725  -32.441    9.786    C.ar       1    CNT1    0.000
    820     C   -3.071  -32.441    9.450    C.ar       1    CNT1    0.000
    821     C   -5.556  -32.441    8.238    C.ar       1    CNT1    0.000
    822     C   -6.649  -32.441    7.384    C.ar       1    CNT1    0.000
    823     C   -8.427  -32.441    5.266    C.ar       1    CNT1    0.000
    824     C   -9.077  -32.441    4.042    C.ar       1    CNT1    0.000
    825     C   -9.840  -32.441    1.383    C.ar       1    CNT1    0.000
    826     C   -9.937  -32.441    0.000    C.ar       1    CNT1    0.000
    827     C   -9.552  -32.441   -2.739    C.ar       1    CNT1    0.000
    828     C   -9.077  -32.441   -4.042    C.ar       1    CNT1    0.000
    829     C   -7.612  -32.441   -6.387    C.ar       1    CNT1    0.000
    830     C   -6.649  -32.441   -7.384    C.ar       1    CNT1    0.000
    831     C   -4.356  -32.441   -8.931    C.ar       1    CNT1    0.000
    832     C   -3.071  -32.441   -9.450    C.ar       1    CNT1    0.000
    833     C   -0.347  -32.441   -9.930    C.ar       1    CNT1    0.000
    834     C    1.039  -32.441   -9.882    C.ar       1    CNT1    0.000
    835     C    3.722  -32.441   -9.213    C.ar       1    CNT1    0.000
    836     C    4.968  -32.441   -8.605    C.ar       1    CNT1    0.000
    837     C    7.148  -32.441   -6.902    C.ar       1    CNT1    0.000
    838     C    8.039  -32.441   -5.841    C.ar       1    CNT1    0.000
    839     C    9.337  -32.441   -3.398    C.ar       1    CNT1    0.000
    840     C    9.719  -32.441   -2.066    C.ar       1    CNT1    0.000
    841     C    9.937  -33.643    0.000    C.ar       1    CNT1    0.000
    842     C    9.552  -33.643    2.739    C.ar       1    CNT1    0.000
    843     C    9.077  -33.643    4.042    C.ar       1    CNT1    0.000
    844     C    7.612  -33.643    6.387    C.ar       1    CNT1    0.000
    845     C    6.649  -33.643    7.384    C.ar       1    CNT1    0.000
    846     C    4.356  -33.643    8.931    C.ar       1    CNT1    0.000
    847     C    3.071  -33.643    9.450    C.ar       1    CNT1    0.000
    848     C    0.347  -33.643    9.930    C.ar       1    CNT1    0.000
    849     C   -1.039  -33.643    9.882    C.ar       1    CNT1    0.000
    850     C   -3.722  -33.643    9.213    C.ar       1    CNT1    0.000
    851     C   -4.968  -33.643    8.605    C.ar       1    CNT1    0.000
    852     C   -7.148  -33.643    6.902    C.ar       1    CNT1    0.000
    853     C   -8.039  -33.643    5.841    C.ar       1    CNT1    0.000
    854     C   -9.337  -33.643    3.398    C.ar       1    CNT1    0.000
    855     C   -9.719  -33.643    2.066    C.ar       1    CNT1    0.000
    856     C   -9.912  -33.643   -0.693    C.ar       1    CNT1    0.000
    857     C   -9.719  -33.643   -2.066    C.ar       1    CNT1    0.000
    858     C   -8.773  -33.643   -4.665    C.ar       1    CNT1    0.000
    859     C   -8.039  -33.643   -5.841    C.ar       1    CNT1    0.000
    860     C   -6.118  -33.643   -7.830    C.ar       1    CNT1    0.000
    861     C   -4.968  -33.643   -8.605    C.ar       1    CNT1    0.000
    862     C   -2.404  -33.643   -9.641    C.ar       1    CNT1    0.000
    863     C   -1.039  -33.643   -9.882    C.ar       1    CNT1    0.000
    864     C    1.725  -33.643   -9.786    C.ar       1    CNT1    0.000
    865     C    3.071  -33.643   -9.450    C.ar       1    CNT1    0.000
    866     C    5.556  -33.643   -8.238    C.ar       1    CNT1    0.000
    867     C    6.649  -33.643   -7.384    C.ar       1    CNT1    0.000
    868     C    8.427  -33.643   -5.266    C.ar       1    CNT1    0.000
    869     C    9.077  -33.643   -4.042    C.ar       1    CNT1    0.000
    870     C    9.840  -33.643   -1.383    C.ar       1    CNT1    0.000
    871     C    9.912  -34.844    0.693    C.ar       1    CNT1    0.000
    872     C    9.719  -34.844    2.066    C.ar       1    CNT1    0.000
    873     C    8.773  -34.844    4.665    C.ar       1    CNT1    0.000
    874     C    8.039  -34.844    5.841    C.ar       1    CNT1    0.000
    875     C    6.118  -34.844    7.830    C.ar       1    CNT1    0.000
    876     C    4.968  -34.844    8.605    C.ar       1    CNT1    0.000
    877     C    2.404  -34.844    9.641    C.ar       1    CNT1    0.000
    878     C    1.039  -34.844    9.882    C.ar       1    CNT1    0.000
    879     C   -1.725  -34.844    9.786    C.ar       1    CNT1    0.000
    880     C   -3.071  -34.844    9.450    C.ar       1    CNT1    0.000
    881     C   -5.556  -34.844    8.238    C.ar       1    CNT1    0.000
    882     C   -6.649  -34.844    7.384    C.ar       1    CNT1    0.000
    883     C   -8.427  -34.844    5.266    C.ar       1    CNT1    0.000
    884     C   -9.077  -34.844    4.042    C.ar       1    CNT1    0.000
    885     C   -9.840  -34.844    1.383    C.ar       1    CNT1    0.000
    886     C   -9.937  -34.844    0.000    C.ar       1    CNT1    0.000
    887     C   -9.552  -34.844   -2.739    C.ar       1    CNT1    0.000
    888     C   -9.077  -34.844   -4.042    C.ar       1    CNT1    0.000
    889     C   -7.612  -34.844   -6.387    C.ar       1    CNT1    0.000
    890     C   -6.649  -34.844   -7.384    C.ar       1    CNT1    0.000
    891     C   -4.356  -34.844   -8.931    C.ar       1    CNT1    0.000
    892     C   -3.071  -34.844   -9.450    C.ar       1    CNT1    0.000
    893     C   -0.347  -34.844   -9.930    C.ar       1    CNT1    0.000
    894     C    1.039  -34.844   -9.882    C.ar       1    CNT1    0.000
    895     C    3.722  -34.844   -9.213    C.ar       1    CNT1    0.000
    896     C    4.968  -34.844   -8.605    C.ar       1    CNT1    0.000
    897     C    7.148  -34.844   -6.902    C.ar       1    CNT1    0.000
    898     C    8.039  -34.844   -5.841    C.ar       1    CNT1    0.000
    899     C    9.337  -34.844   -3.398    C.ar       1    CNT1    0.000
    900     C    9.719  -34.844   -2.066    C.ar       1    CNT1    0.000
    901     C    9.937  -36.046    0.000    C.ar       1    CNT1    0.000
    902     C    9.552  -36.046    2.739    C.ar       1    CNT1    0.000
    903     C    9.077  -36.046    4.042    C.ar       1    CNT1    0.000
    904     C    7.612  -36.046    6.387    C.ar       1    CNT1    0.000
    905     C    6.649  -36.046    7.384    C.ar       1    CNT1    0.000
    906     C    4.356  -36.046    8.931    C.ar       1    CNT1    0.000
    907     C    3.071  -36.046    9.450    C.ar       1    CNT1    0.000
    908     C    0.347  -36.046    9.930    C.ar       1    CNT1    0.000
    909     C   -1.039  -36.046    9.882    C.ar       1    CNT1    0.000
    910     C   -3.722  -36.046    9.213    C.ar       1    CNT1    0.000
    911     C   -4.968  -36.046    8.605    C.ar       1    CNT1    0.000
    912     C   -7.148  -36.046    6.902    C.ar       1    CNT1    0.000
    913     C   -8.039  -36.046    5.841    C.ar       1    CNT1    0.000
    914     C   -9.337  -36.046    3.398    C.ar       1    CNT1    0.000
    915     C   -9.719  -36.046    2.066    C.ar       1    CNT1    0.000
    916     C   -9.912  -36.046   -0.693    C.ar       1    CNT1    0.000
    917     C   -9.719  -36.046   -2.066    C.ar       1    CNT1    0.000
    918     C   -8.773  -36.046   -4.665    C.ar       1    CNT1    0.000
    919     C   -8.039  -36.046   -5.841    C.ar       1    CNT1    0.000
    920     C   -6.118  -36.046   -7.830    C.ar       1    CNT1    0.000
    921     C   -4.968  -36.046   -8.605    C.ar       1    CNT1    0.000
    922     C   -2.404  -36.046   -9.641    C.ar       1    CNT1    0.000
    923     C   -1.039  -36.046   -9.882    C.ar       1    CNT1    0.000
    924     C    1.725  -36.046   -9.786    C.ar       1    CNT1    0.000
    925     C    3.071  -36.046   -9.450    C.ar       1    CNT1    0.000
    926     C    5.556  -36.046   -8.238    C.ar       1    CNT1    0.000
    927     C    6.649  -36.046   -7.384    C.ar       1    CNT1    0.000
    928     C    8.427  -36.046   -5.266    C.ar       1    CNT1    0.000
    929     C    9.077  -36.046   -4.042    C.ar       1    CNT1    0.000
    930     C    9.840  -36.046   -1.383    C.ar       1    CNT1    0.000
    931     C    9.912  -37.247    0.693    C.ar       1    CNT1    0.000
    932     C    9.719  -37.247    2.066    C.ar       1    CNT1    0.000
    933     C    8.773  -37.247    4.665    C.ar       1    CNT1    0.000
    934     C    8.039  -37.247    5.841    C.ar       1    CNT1    0.000
    935     C    6.118  -37.247    7.830    C.ar       1    CNT1    0.000
    936     C    4.968  -37.247    8.605    C.ar       1    CNT1    0.000
    937     C    2.404  -37.247    9.641    C.ar       1    CNT1    0.000
    938     C    1.039  -37.247    9.882    C.ar       1    CNT1    0.000
    939     C   -1.725  -37.247    9.786    C.ar       1    CNT1    0.000
    940     C   -3.071  -37.247    9.450    C.ar       1    CNT1    0.000
    941     C   -5.556  -37.247    8.238    C.ar       1    CNT1    0.000
    942     C   -6.649  -37.247    7.384    C.ar       1    CNT1    0.000
    943     C   -8.427  -37.247    5.266    C.ar       1    CNT1    0.000
    944     C   -9.077  -37.247    4.042    C.ar       1    CNT1    0.000
    945     C   -9.840  -37.247    1.383    C.ar       1    CNT1    0.000
    946     C   -9.937  -37.247    0.000    C.ar       1    CNT1    0.000
    947     C   -9.552  -37.247   -2.739    C.ar       1    CNT1    0.000
    948     C   -9.077  -37.247   -4.042    C.ar       1    CNT1    0.000
    949     C   -7.612  -37.247   -6.387    C.ar       1    CNT1    0.000
    950     C   -6.649  -37.247   -7.384    C.ar       1    CNT1    0.000
    951     C   -4.356  -37.247   -8.931    C.ar       1    CNT1    0.000
    952     C   -3.071  -37.247   -9.450    C.ar       1    CNT1    0.000
    953     C   -0.347  -37.247   -9.930    C.ar       1    CNT1    0.000
    954     C    1.039  -37.247   -9.882    C.ar       1    CNT1    0.000
    955     C    3.722  -37.247   -9.213    C.ar       1    CNT1    0.000
    956     C    4.968  -37.247   -8.605    C.ar       1    CNT1    0.000
    957     C    7.148  -37.247   -6.902    C.ar       1    CNT1    0.000
    958     C    8.039  -37.247   -5.841    C.ar       1    CNT1    0.000
    959     C    9.337  -37.247   -3.398    C.ar       1    CNT1    0.000
    960     C    9.719  -37.247   -2.066    C.ar       1    CNT1    0.000
    961     C    9.937  -38.449    0.000    C.ar       1    CNT1    0.000
    962     C    9.552  -38.449    2.739    C.ar       1    CNT1    0.000
    963     C    9.077  -38.449    4.042    C.ar       1    CNT1    0.000
    964     C    7.612  -38.449    6.387    C.ar       1    CNT1    0.000
    965     C    6.649  -38.449    7.384    C.ar       1    CNT1    0.000
    966     C    4.356  -38.449    8.931    C.ar       1    CNT1    0.000
    967     C    3.071  -38.449    9.450    C.ar       1    CNT1    0.000
    968     C    0.347  -38.449    9.930    C.ar       1    CNT1    0.000
    969     C   -1.039  -38.449    9.882    C.ar       1    CNT1    0.000
    970     C   -3.722  -38.449    9.213    C.ar       1    CNT1    0.000
    971     C   -4.968  -38.449    8.605    C.ar       1    CNT1    0.000
    972     C   -7.148  -38.449    6.902    C.ar       1    CNT1    0.000
    973     C   -8.039  -38.449    5.841    C.ar       1    CNT1    0.000
    974     C   -9.337  -38.449    3.398    C.ar       1    CNT1    0.000
    975     C   -9.719  -38.449    2.066    C.ar       1    CNT1    0.000
    976     C   -9.912  -38.449   -0.693    C.ar       1    CNT1    0.000
    977     C   -9.719  -38.449   -2.066    C.ar       1    CNT1    0.000
    978     C   -8.773  -38.449   -4.665    C.ar       1    CNT1    0.000
    979     C   -8.039  -38.449   -5.841    C.ar       1    CNT1    0.000
    980     C   -6.118  -38.449   -7.830    C.ar       1    CNT1    0.000
    981     C   -4.968  -38.449   -8.605    C.ar       1    CNT1    0.000
    982     C   -2.404  -38.449   -9.641    C.ar       1    CNT1    0.000
    983     C   -1.039  -38.449   -9.882    C.ar       1    CNT1    0.000
    984     C    1.725  -38.449   -9.786    C.ar       1    CNT1    0.000
    985     C    3.071  -38.449   -9.450    C.ar       1    CNT1    0.000
    986     C    5.556  -38.449   -8.238    C.ar       1    CNT1    0.000
    987     C    6.649  -38.449   -7.384    C.ar       1    CNT1    0.000
    988     C    8.427  -38.449   -5.266    C.ar       1    CNT1    0.000
    989     C    9.077  -38.449   -4.042    C.ar       1    CNT1    0.000
    990     C    9.840  -38.449   -1.383    C.ar       1    CNT1    0.000
    991     C    9.912  -39.650    0.693    C.ar       1    CNT1    0.000
    992     C    9.719  -39.650    2.066    C.ar       1    CNT1    0.000
    993     C    8.773  -39.650    4.665    C.ar       1    CNT1    0.000
    994     C    8.039  -39.650    5.841    C.ar       1    CNT1    0.000
    995     C    6.118  -39.650    7.830    C.ar       1    CNT1    0.000
    996     C    4.968  -39.650    8.605    C.ar       1    CNT1    0.000
    997     C    2.404  -39.650    9.641    C.ar       1    CNT1    0.000
    998     C    1.039  -39.650    9.882    C.ar       1    CNT1    0.000
    999     C   -1.725  -39.650    9.786    C.ar       1    CNT1    0.000
   1000     C   -3.071  -39.650    9.450    C.ar       1    CNT1    0.000
   1001     C   -5.556  -39.650    8.238    C.ar       1    CNT1    0.000
   1002     C   -6.649  -39.650    7.384    C.ar       1    CNT1    0.000
   1003     C   -8.427  -39.650    5.266    C.ar       1    CNT1    0.000
   1004     C   -9.077  -39.650    4.042    C.ar       1    CNT1    0.000
   1005     C   -9.840  -39.650    1.383    C.ar       1    CNT1    0.000
   1006     C   -9.937  -39.650    0.000    C.ar       1    CNT1    0.000
   1007     C   -9.552  -39.650   -2.739    C.ar       1    CNT1    0.000
   1008     C   -9.077  -39.650   -4.042    C.ar       1    CNT1    0.000
   1009     C   -7.612  -39.650   -6.387    C.ar       1    CNT1    0.000
   1010     C   -6.649  -39.650   -7.384    C.ar       1    CNT1    0.000
   1011     C   -4.356  -39.650   -8.931    C.ar       1    CNT1    0.000
   1012     C   -3.071  -39.650   -9.450    C.ar       1    CNT1    0.000
   1013     C   -0.347  -39.650   -9.930    C.ar       1    CNT1    0.000
   1014     C    1.039  -39.650   -9.882    C.ar       1    CNT1    0.000
   1015     C    3.722  -39.650   -9.213    C.ar       1    CNT1    0.000
   1016     C    4.968  -39.650   -8.605    C.ar       1    CNT1    0.000
   1017     C    7.148  -39.650   -6.902    C.ar       1    CNT1    0.000
   1018     C    8.039  -39.650   -5.841    C.ar       1    CNT1    0.000
   1019     C    9.337  -39.650   -3.398    C.ar       1    CNT1    0.000
   1020     C    9.719  -39.650   -2.066    C.ar       1    CNT1    0.000
   1021     C    9.937  -40.852    0.000    C.ar       1    CNT1    0.000
   1022     C    9.552  -40.852    2.739    C.ar       1    CNT1    0.000
   1023     C    9.077  -40.852    4.042    C.ar       1    CNT1    0.000
   1024     C    7.612  -40.852    6.387    C.ar       1    CNT1    0.000
   1025     C    6.649  -40.852    7.384    C.ar       1    CNT1    0.000
   1026     C    4.356  -40.852    8.931    C.ar       1    CNT1    0.000
   1027     C    3.071  -40.852    9.450    C.ar       1    CNT1    0.000
   1028     C    0.347  -40.852    9.930    C.ar       1    CNT1    0.000
   1029     C   -1.039  -40.852    9.882    C.ar       1    CNT1    0.000
   1030     C   -3.722  -40.852    9.213    C.ar       1    CNT1    0.000
   1031     C   -4.968  -40.852    8.605    C.ar       1    CNT1    0.000
   1032     C   -7.148  -40.852    6.902    C.ar       1    CNT1    0.000
   1033     C   -8.039  -40.852    5.841    C.ar       1    CNT1    0.000
   1034     C   -9.337  -40.852    3.398    C.ar       1    CNT1    0.000
   1035     C   -9.719  -40.852    2.066    C.ar       1    CNT1    0.000
   1036     C   -9.912  -40.852   -0.693    C.ar       1    CNT1    0.000
   1037     C   -9.719  -40.852   -2.066    C.ar       1    CNT1    0.000
   1038     C   -8.773  -40.852   -4.665    C.ar       1    CNT1    0.000
   1039     C   -8.039  -40.852   -5.841    C.ar       1    CNT1    0.000
   1040     C   -6.118  -40.852   -7.830    C.ar       1    CNT1    0.000
   1041     C   -4.968  -40.852   -8.605    C.ar       1    CNT1    0.000
   1042     C   -2.404  -40.852   -9.641    C.ar       1    CNT1    0.000
   1043     C   -1.039  -40.852   -9.882    C.ar       1    CNT1    0.000
   1044     C    1.725  -40.852   -9.786    C.ar       1    CNT1    0.000
   1045     C    3.071  -40.852   -9.450    C.ar       1    CNT1    0.000
   1046     C    5.556  -40.852   -8.238    C.ar       1    CNT1    0.000
   1047     C    6.649  -40.852   -7.384    C.ar       1    CNT1    0.000
   1048     C    8.427  -40.852   -5.266    C.ar       1    CNT1    0.000
   1049     C    9.077  -40.852   -4.042    C.ar       1    CNT1    0.000
   1050     C    9.840  -40.852   -1.383    C.ar       1    CNT1    0.000
   1051     C    9.912  -42.053    0.693    C.ar       1    CNT1    0.000
   1052     C    9.719  -42.053    2.066    C.ar       1    CNT1    0.000
   1053     C    8.773  -42.053    4.665    C.ar       1    CNT1    0.000
   1054     C    8.039  -42.053    5.841    C.ar       1    CNT1    0.000
   1055     C    6.118  -42.053    7.830    C.ar       1    CNT1    0.000
   1056     C    4.968  -42.053    8.605    C.ar       1    CNT1    0.000
   1057     C    2.404  -42.053    9.641    C.ar       1    CNT1    0.000
   1058     C    1.039  -42.053    9.882    C.ar       1    CNT1    0.000
   1059     C   -1.725  -42.053    9.786    C.ar       1    CNT1    0.000
   1060     C   -3.071  -42.053    9.450    C.ar       1    CNT1    0.000
   1061     C   -5.556  -42.053    8.238    C.ar       1    CNT1    0.000
   1062     C   -6.649  -42.053    7.384    C.ar       1    CNT1    0.000
   1063     C   -8.427  -42.053    5.266    C.ar       1    CNT1    0.000
   1064     C   -9.077  -42.053    4.042    C.ar       1    CNT1    0.000
   1065     C   -9.840  -42.053    1.383    C.ar       1    CNT1    0.000
   1066     C   -9.937  -42.053    0.000    C.ar       1    CNT1    0.000
   1067     C   -9.552  -42.053   -2.739    C.ar       1    CNT1    0.000
   1068     C   -9.077  -42.053   -4.042    C.ar       1    CNT1    0.000
   1069     C   -7.612  -42.053   -6.387    C.ar       1    CNT1    0.000
   1070     C   -6.649  -42.053   -7.384    C.ar       1    CNT1    0.000
   1071     C   -4.356  -42.053   -8.931    C.ar       1    CNT1    0.000
   1072     C   -3.071  -42.053   -9.450    C.ar       1    CNT1    0.000
   1073     C   -0.347  -42.053   -9.930    C.ar       1    CNT1    0.000
   1074     C    1.039  -42.053   -9.882    C.ar       1    CNT1    0.000
   1075     C    3.722  -42.053   -9.213    C.ar       1    CNT1    0.000
   1076     C    4.968  -42.053   -8.605    C.ar       1    CNT1    0.000
   1077     C    7.148  -42.053   -6.902    C.ar       1    CNT1    0.000
   1078     C    8.039  -42.053   -5.841    C.ar       1    CNT1    0.000
   1079     C    9.337  -42.053   -3.398    C.ar       1    CNT1    0.000
   1080     C    9.719  -42.053   -2.066    C.ar       1    CNT1    0.000
   1081     C    9.937  -43.255    0.000    C.ar       1    CNT1    0.000
   1082     C    9.552  -43.255    2.739    C.ar       1    CNT1    0.000
   1083     C    9.077  -43.255    4.042    C.ar       1    CNT1    0.000
   1084     C    7.612  -43.255    6.387    C.ar       1    CNT1    0.000
   1085     C    6.649  -43.255    7.384    C.ar       1    CNT1    0.000
   1086     C    4.356  -43.255    8.931    C.ar       1    CNT1    0.000
   1087     C    3.071  -43.255    9.450    C.ar       1    CNT1    0.000
   1088     C    0.347  -43.255    9.930    C.ar       1    CNT1    0.000
   1089     C   -1.039  -43.255    9.882    C.ar       1    CNT1    0.000
   1090     C   -3.722  -43.255    9.213    C.ar       1    CNT1    0.000
   1091     C   -4.968  -43.255    8.605    C.ar       1    CNT1    0.000
   1092     C   -7.148  -43.255    6.902    C.ar       1    CNT1    0.000
   1093     C   -8.039  -43.255    5.841    C.ar       1    CNT1    0.000
   1094     C   -9.337  -43.255    3.398    C.ar       1    CNT1    0.000
   1095     C   -9.719  -43.255    2.066    C.ar       1    CNT1    0.000
   1096     C   -9.912  -43.255   -0.693    C.ar       1    CNT1    0.000
   1097     C   -9.719  -43.255   -2.066    C.ar       1    CNT1    0.000
   1098     C   -8.773  -43.255   -4.665    C.ar       1    CNT1    0.000
   1099     C   -8.039  -43.255   -5.841    C.ar       1    CNT1    0.000
   1100     C   -6.118  -43.255   -7.830    C.ar       1    CNT1    0.000
   1101     C   -4.968  -43.255   -8.605    C.ar       1    CNT1    0.000
   1102     C   -2.404  -43.255   -9.641    C.ar       1    CNT1    0.000
   1103     C   -1.039  -43.255   -9.882    C.ar       1    CNT1    0.000
   1104     C    1.725  -43.255   -9.786    C.ar       1    CNT1    0.000
   1105     C    3.071  -43.255   -9.450    C.ar       1    CNT1    0.000
   1106     C    5.556  -43.255   -8.238    C.ar       1    CNT1    0.000
   1107     C    6.649  -43.255   -7.384    C.ar       1    CNT1    0.000
   1108     C    8.427  -43.255   -5.266    C.ar       1    CNT1    0.000
   1109     C    9.077  -43.255   -4.042    C.ar       1    CNT1    0.000
   1110     C    9.840  -43.255   -1.383    C.ar       1    CNT1    0.000
   1111     C    9.912  -44.456    0.693    C.ar       1    CNT1    0.000
   1112     C    9.719  -44.456    2.066    C.ar       1    CNT1    0.000
   1113     C    8.773  -44.456    4.665    C.ar       1    CNT1    0.000
   1114     C    8.039  -44.456    5.841    C.ar       1    CNT1    0.000
   1115     C    6.118  -44.456    7.830    C.ar       1    CNT1    0.000
   1116     C    4.968  -44.456    8.605    C.ar       1    CNT1    0.000
   1117     C    2.404  -44.456    9.641    C.ar       1    CNT1    0.000
   1118     C    1.039  -44.456    9.882    C.ar       1    CNT1    0.000
   1119     C   -1.725  -44.456    9.786    C.ar       1    CNT1    0.000
   1120     C   -3.071  -44.456    9.450    C.ar       1    CNT1    0.000
   1121     C   -5.556  -44.456    8.238    C.ar       1    CNT1    0.000
   1122     C   -6.649  -44.456    7.384    C.ar       1    CNT1    0.000
   1123     C   -8.427  -44.456    5.266    C.ar       1    CNT1    0.000
   1124     C   -9.077  -44.456    4.042    C.ar       1    CNT1    0.000
   1125     C   -9.840  -44.456    1.383    C.ar       1    CNT1    0.000
   1126     C   -9.937  -44.456    0.000    C.ar       1    CNT1    0.000
   1127     C   -9.552  -44.456   -2.739    C.ar       1    CNT1    0.000
   1128     C   -9.077  -44.456   -4.042    C.ar       1    CNT1    0.000
   1129     C   -7.612  -44.456   -6.387    C.ar       1    CNT1    0.000
   1130     C   -6.649  -44.456   -7.384    C.ar       1    CNT1    0.000
   1131     C   -4.356  -44.456   -8.931    C.ar       1    CNT1    0.000
   1132     C   -3.071  -44.456   -9.450    C.ar       1    CNT1    0.000
   1133     C   -0.347  -44.456   -9.930    C.ar       1    CNT1    0.000
   1134     C    1.039  -44.456   -9.882    C.ar       1    CNT1    0.000
   1135     C    3.722  -44.456   -9.213    C.ar       1    CNT1    0.000
   1136     C    4.968  -44.456   -8.605    C.ar       1    CNT1    0.000
   1137     C    7.148  -44.456   -6.902    C.ar       1    CNT1    0.000
   1138     C    8.039  -44.456   -5.841    C.ar       1    CNT1    0.000
   1139     C    9.337  -44.456   -3.398    C.ar       1    CNT1    0.000
   1140     C    9.719  -44.456   -2.066    C.ar       1    CNT1    0.000
   1141     C    9.937  -45.658    0.000    C.ar       1    CNT1    0.010
   1142     C    9.552  -45.658    2.739    C.ar       1    CNT1    0.010
   1143     C    9.077  -45.658    4.042    C.ar       1    CNT1    0.010
   1144     C    7.612  -45.658    6.387    C.ar       1    CNT1    0.010
   1145     C    6.649  -45.658    7.384    C.ar       1    CNT1    0.010
   1146     C    4.356  -45.658    8.931    C.ar       1    CNT1    0.010
   1147     C    3.071  -45.658    9.450    C.ar       1    CNT1    0.010
   1148     C    0.347  -45.658    9.930    C.ar       1    CNT1    0.010
   1149     C   -1.039  -45.658    9.882    C.ar       1    CNT1    0.010
   1150     C   -3.722  -45.658    9.213    C.ar       1    CNT1    0.010
   1151     C   -4.968  -45.658    8.605    C.ar       1    CNT1    0.010
   1152     C   -7.148  -45.658    6.902    C.ar       1    CNT1    0.010
   1153     C   -8.039  -45.658    5.841    C.ar       1    CNT1    0.010
   1154     C   -9.337  -45.658    3.398    C.ar       1    CNT1    0.010
   1155     C   -9.719  -45.658    2.066    C.ar       1    CNT1    0.010
   1156     C   -9.912  -45.658   -0.693    C.ar       1    CNT1    0.010
   1157     C   -9.719  -45.658   -2.066    C.ar       1    CNT1    0.010
   1158     C   -8.773  -45.658   -4.665    C.ar       1    CNT1    0.010
   1159     C   -8.039  -45.658   -5.841    C.ar       1    CNT1    0.010
   1160     C   -6.118  -45.658   -7.830    C.ar       1    CNT1    0.010
   1161     C   -4.968  -45.658   -8.605    C.ar       1    CNT1    0.010
   1162     C   -2.404  -45.658   -9.641    C.ar       1    CNT1    0.010
   1163     C   -1.039  -45.658   -9.882    C.ar       1    CNT1    0.010
   1164     C    1.725  -45.658   -9.786    C.ar       1    CNT1    0.010
   1165     C    3.071  -45.658   -9.450    C.ar       1    CNT1    0.010
   1166     C    5.556  -45.658   -8.238    C.ar       1    CNT1    0.010
   1167     C    6.649  -45.658   -7.384    C.ar       1    CNT1    0.010
   1168     C    8.427  -45.658   -5.266    C.ar       1    CNT1    0.010
   1169     C    9.077  -45.658   -4.042    C.ar       1    CNT1    0.010
   1170     C    9.840  -45.658   -1.383    C.ar       1    CNT1    0.010
   1171     C    9.912  -46.859    0.693    C.ar       1    CNT1    0.240
   1172     C    9.719  -46.859    2.066    C.ar       1    CNT1   -0.280
   1173     C    8.773  -46.859    4.665    C.ar       1    CNT1    0.240
   1174     C    8.039  -46.859    5.841    C.ar       1    CNT1   -0.280
   1175     C    6.118  -46.859    7.830    C.ar       1    CNT1    0.240
   1176     C    4.968  -46.859    8.605    C.ar       1    CNT1   -0.280
   1177     C    2.404  -46.859    9.641    C.ar       1    CNT1    0.240
   1178     C    1.039  -46.859    9.882    C.ar       1    CNT1   -0.280
   1179     C   -1.725  -46.859    9.786    C.ar       1    CNT1    0.240
   1180     C   -3.071  -46.859    9.450    C.ar       1    CNT1   -0.280
   1181     C   -5.556  -46.859    8.238    C.ar       1    CNT1    0.240
   1182     C   -6.649  -46.859    7.384    C.ar       1    CNT1   -0.280
   1183     C   -8.427  -46.859    5.266    C.ar       1    CNT1    0.240
   1184     C   -9.077  -46.859    4.042    C.ar       1    CNT1   -0.280
   1185     C   -9.840  -46.859    1.383    C.ar       1    CNT1    0.240
   1186     C   -9.937  -46.859    0.000    C.ar       1    CNT1   -0.280
   1187     C   -9.552  -46.859   -2.739    C.ar       1    CNT1    0.240
   1188     C   -9.077  -46.859   -4.042    C.ar       1    CNT1   -0.280
   1189     C   -7.612  -46.859   -6.387    C.ar       1    CNT1    0.240
   1190     C   -6.649  -46.859   -7.384    C.ar       1    CNT1   -0.280
   1191     C   -4.356  -46.859   -8.931    C.ar       1    CNT1    0.240
   1192     C   -3.071  -46.859   -9.450    C.ar       1    CNT1   -0.280
   1193     C   -0.347  -46.859   -9.930    C.ar       1    CNT1    0.240
   1194     C    1.039  -46.859   -9.882    C.ar       1    CNT1   -0.280
   1195     C    3.722  -46.859   -9.213    C.ar       1    CNT1    0.240
   1196     C    4.968  -46.859   -8.605    C.ar       1    CNT1   -0.280
   1197     C    7.148  -46.859   -6.902    C.ar       1    CNT1    0.240
   1198     C    8.039  -46.859   -5.841    C.ar       1    CNT1   -0.280
   1199     C    9.337  -46.859   -3.398    C.ar       1    CNT1    0.240
   1200     C    9.719  -46.859   -2.066    C.ar       1    CNT1   -0.280
   1201     O   10.652    1.238    0.000     O.3       1    CNT1   -0.530
   1202     H   11.632    1.238    0.000       H       1    CNT1    0.370
   1203     H   10.085    0.944    2.852       H       1    CNT1    0.180
   1204     O    9.731    1.238    4.332     O.3       1    CNT1   -0.530
   1205     H   10.626    1.238    4.731       H       1    CNT1    0.370
   1206     H    8.053    0.944    6.707       H       1    CNT1    0.180
   1207     O    7.127    1.238    7.916     O.3       1    CNT1   -0.530
   1208     H    7.783    1.238    8.644       H       1    CNT1    0.370
   1209     H    4.628    0.944    9.403       H       1    CNT1    0.180
   1210     O    3.292    1.238   10.130     O.3       1    CNT1   -0.530
   1211     H    3.594    1.238   11.062       H       1    CNT1    0.370
   1212     H    0.404    0.944   10.472       H       1    CNT1    0.180
   1213     O   -1.113    1.238   10.593     O.3       1    CNT1   -0.530
   1214     H   -1.216    1.238   11.568       H       1    CNT1    0.370
   1215     H   -3.891    0.944    9.731       H       1    CNT1    0.180
   1216     O   -5.326    1.238    9.224     O.3       1    CNT1   -0.530
   1217     H   -5.816    1.238   10.073       H       1    CNT1    0.370
   1218     H   -7.512    0.944    7.308       H       1    CNT1    0.180
   1219     O   -8.617    1.238    6.261     O.3       1    CNT1   -0.530
   1220     H   -9.410    1.238    6.837       H       1    CNT1    0.370
   1221     H   -9.835    0.944    3.620       H       1    CNT1    0.180
   1222     O  -10.419    1.238    2.215     O.3       1    CNT1   -0.530
   1223     H  -11.377    1.238    2.418       H       1    CNT1    0.370
   1224     H  -10.457    0.944   -0.693       H       1    CNT1    0.180
   1225     O  -10.419    1.238   -2.215     O.3       1    CNT1   -0.530
   1226     H  -11.377    1.238   -2.418       H       1    CNT1    0.370
   1227     H   -9.271    0.944   -4.887       H       1    CNT1    0.180
   1228     O   -8.617    1.238   -6.261     O.3       1    CNT1   -0.530
   1229     H   -9.410    1.238   -6.837       H       1    CNT1    0.370
   1230     H   -6.482    0.944   -8.235       H       1    CNT1    0.180
   1231     O   -5.326    1.238   -9.224     O.3       1    CNT1   -0.530
   1232     H   -5.816    1.238  -10.073       H       1    CNT1    0.370
   1233     H   -2.572    0.944  -10.160       H       1    CNT1    0.180
   1234     O   -1.113    1.238  -10.593     O.3       1    CNT1   -0.530
   1235     H   -1.216    1.238  -11.568       H       1    CNT1    0.370
   1236     H    1.782    0.944  -10.328       H       1    CNT1    0.180
   1237     O    3.292    1.238  -10.130     O.3       1    CNT1   -0.530
   1238     H    3.594    1.238  -11.062       H       1    CNT1    0.370
   1239     H    5.829    0.944   -8.710       H       1    CNT1    0.180
   1240     O    7.127    1.238   -7.916     O.3       1    CNT1   -0.530
   1241     H    7.783    1.238   -8.644       H       1    CNT1    0.370
   1242     H    8.868    0.944   -5.586       H       1    CNT1    0.180
   1243     O    9.731    1.238   -4.332     O.3       1    CNT1   -0.530
   1244     H   10.626    1.238   -4.731       H       1    CNT1    0.370
   1245     H   10.373    0.944   -1.496       H       1    CNT1    0.180
   1246     O   10.627  -48.098    0.693     O.3       1    CNT1   -0.530
   1247     H   11.607  -48.098    0.693       H       1    CNT1    0.370
   1248     H   10.252  -47.803    2.179       H       1    CNT1    0.180
   1249     O    9.427  -48.098    4.956     O.3       1    CNT1   -0.530
   1250     H   10.322  -48.098    5.354       H       1    CNT1    0.370
   1251     H    8.480  -47.803    6.161       H       1    CNT1    0.180
   1252     O    6.596  -48.098    8.361     O.3       1    CNT1   -0.530
   1253     H    7.252  -48.098    9.090       H       1    CNT1    0.370
   1254     H    5.241  -47.803    9.077       H       1    CNT1    0.180
   1255     O    2.625  -48.098   10.321     O.3       1    CNT1   -0.530
   1256     H    2.928  -48.098   11.253       H       1    CNT1    0.370
   1257     H    1.096  -47.803   10.424       H       1    CNT1    0.180
   1258     O   -1.800  -48.098   10.497     O.3       1    CNT1   -0.530
   1259     H   -1.903  -48.098   11.471       H       1    CNT1    0.370
   1260     H   -3.239  -47.803    9.969       H       1    CNT1    0.180
   1261     O   -5.914  -48.098    8.857     O.3       1    CNT1   -0.530
   1262     H   -6.404  -48.098    9.706       H       1    CNT1    0.370
   1263     H   -7.014  -47.803    7.789       H       1    CNT1    0.180
   1264     O   -9.005  -48.098    5.686     O.3       1    CNT1   -0.530
   1265     H   -9.798  -48.098    6.262       H       1    CNT1    0.370
   1266     H   -9.575  -47.803    4.263       H       1    CNT1    0.180
   1267     O  -10.539  -48.098    1.532     O.3       1    CNT1   -0.530
   1268     H  -11.498  -48.098    1.735       H       1    CNT1    0.370
   1269     H  -10.482  -47.803    0.000       H       1    CNT1    0.180
   1270     O  -10.251  -48.098   -2.888     O.3       1    CNT1   -0.530
   1271     H  -11.210  -48.098   -3.091       H       1    CNT1    0.370
   1272     H   -9.575  -47.803   -4.263       H       1    CNT1    0.180
   1273     O   -8.190  -48.098   -6.807     O.3       1    CNT1   -0.530
   1274     H   -8.983  -48.098   -7.383       H       1    CNT1    0.370
   1275     H   -7.014  -47.803   -7.789       H       1    CNT1    0.180
   1276     O   -4.713  -48.098   -9.550     O.3       1    CNT1   -0.530
   1277     H   -5.203  -48.098  -10.399       H       1    CNT1    0.370
   1278     H   -3.239  -47.803   -9.969       H       1    CNT1    0.180
   1279     O   -0.422  -48.098  -10.642     O.3       1    CNT1   -0.530
   1280     H   -0.524  -48.098  -11.616       H       1    CNT1    0.370
   1281     H    1.096  -47.803  -10.424       H       1    CNT1    0.180
   1282     O    3.943  -48.098   -9.893     O.3       1    CNT1   -0.530
   1283     H    4.246  -48.098  -10.825       H       1    CNT1    0.370
   1284     H    5.241  -47.803   -9.077       H       1    CNT1    0.180
   1285     O    7.626  -48.098   -7.434     O.3       1    CNT1   -0.530
   1286     H    8.282  -48.098   -8.162       H       1    CNT1    0.370
   1287     H    8.480  -47.803   -6.161       H       1    CNT1    0.180
   1288     O    9.990  -48.098   -3.689     O.3       1    CNT1   -0.530
   1289     H   10.886  -48.098   -4.088       H       1    CNT1    0.370
   1290     H   10.252  -47.803   -2.179       H       1    CNT1    0.180
@<TRIPOS>BOND
      1       1      30      ar
      2       1      31      ar
      3       1    1201       1
      4       2       3      ar
      5       2      32      ar
      6       2    1203       1
      7       3      33      ar
      8       3    1204       1
      9       4       5      ar
     10       4      34      ar
     11       4    1206       1
     12       5      35      ar
     13       5    1207       1
     14       6       7      ar
     15       6      36      ar
     16       6    1209       1
     17       7      37      ar
     18       7    1210       1
     19       8       9      ar
     20       8      38      ar
     21       8    1212       1
     22       9      39      ar
     23       9    1213       1
     24      10      11      ar
     25      10      40      ar
     26      10    1215       1
     27      11      41      ar
     28      11    1216       1
     29      12      13      ar
     30      12      42      ar
     31      12    1218       1
     32      13      43      ar
     33      13    1219       1
     34      14      15      ar
     35      14      44      ar
     36      14    1221       1
     37      15      45      ar
     38      15    1222       1
     39      16      17      ar
     40      16      46      ar
     41      16    1224       1
     42      17      47      ar
     43      17    1225       1
     44      18      19      ar
     45      18      48      ar
     46      18    1227       1
     47      19      49      ar
     48      19    1228       1
     49      20      21      ar
     50      20      50      ar
     51      20    1230       1
     52      21      51      ar
     53      21    1231       1
     54      22      23      ar
     55      22      52      ar
     56      22    1233       1
     57      23      53      ar
     58      23    1234       1
     59      24      25      ar
     60      24      54      ar
     61      24    1236       1
     62      25      55      ar
     63      25    1237       1
     64      26      27      ar
     65      26      56      ar
     66      26    1239       1
     67      27      57      ar
     68      27    1240       1
     69      28      29      ar
     70      28      58      ar
     71      28    1242       1
     72      29      59      ar
     73      29    1243       1
     74      30      60      ar
     75      30    1245       1
     76      31      32      ar
     77      31      61      ar
     78      32      62      ar
     79      33      34      ar
     80      33      63      ar
     81      34      64      ar
     82      35      36      ar
     83      35      65      ar
     84      36      66      ar
     85      37      38      ar
     86      37      67      ar
     87      38      68      ar
     88      39      40      ar
     89      39      69      ar
     90      40      70      ar
     91      41      42      ar
     92      41      71      ar
     93      42      72      ar
     94      43      44      ar
     95      43      73      ar
     96      44      74      ar
     97      45      46      ar
     98      45      75      ar
     99      46      76      ar
    100      47      48      ar
    101      47      77      ar
    102      48      78      ar
    103      49      50      ar
    104      49      79      ar
    105      50      80      ar
    106      51      52      ar
    107      51      81      ar
    108      52      82      ar
    109      53      54      ar
    110      53      83      ar
    111      54      84      ar
    112      55      56      ar
    113      55      85      ar
    114      56      86      ar
    115      57      58      ar
    116      57      87      ar
    117      58      88      ar
    118      59      60      ar
    119      59      89      ar
    120      60      90      ar
    121      61      90      ar
    122      61      91      ar
    123      62      63      ar
    124      62      92      ar
    125      63      93      ar
    126      64      65      ar
    127      64      94      ar
    128      65      95      ar
    129      66      67      ar
    130      66      96      ar
    131      67      97      ar
    132      68      69      ar
    133      68      98      ar
    134      69      99      ar
    135      70      71      ar
    136      70     100      ar
    137      71     101      ar
    138      72      73      ar
    139      72     102      ar
    140      73     103      ar
    141      74      75      ar
    142      74     104      ar
    143      75     105      ar
    144      76      77      ar
    145      76     106      ar
    146      77     107      ar
    147      78      79      ar
    148      78     108      ar
    149      79     109      ar
    150      80      81      ar
    151      80     110      ar
    152      81     111      ar
    153      82      83      ar
    154      82     112      ar
    155      83     113      ar
    156      84      85      ar
    157      84     114      ar
    158      85     115      ar
    159      86      87      ar
    160      86     116      ar
    161      87     117      ar
    162      88      89      ar
    163      88     118      ar
    164      89     119      ar
    165      90     120      ar
    166      91      92      ar
    167      91     121      ar
    168      92     122      ar
    169      93      94      ar
    170      93     123      ar
    171      94     124      ar
    172      95      96      ar
    173      95     125      ar
    174      96     126      ar
    175      97      98      ar
    176      97     127      ar
    177      98     128      ar
    178      99     100      ar
    179      99     129      ar
    180     100     130      ar
    181     101     102      ar
    182     101     131      ar
    183     102     132      ar
    184     103     104      ar
    185     103     133      ar
    186     104     134      ar
    187     105     106      ar
    188     105     135      ar
    189     106     136      ar
    190     107     108      ar
    191     107     137      ar
    192     108     138      ar
    193     109     110      ar
    194     109     139      ar
    195     110     140      ar
    196     111     112      ar
    197     111     141      ar
    198     112     142      ar
    199     113     114      ar
    200     113     143      ar
    201     114     144      ar
    202     115     116      ar
    203     115     145      ar
    204     116     146      ar
    205     117     118      ar
    206     117     147      ar
    207     118     148      ar
    208     119     120      ar
    209     119     149      ar
    210     120     150      ar
    211     121     150      ar
    212     121     151      ar
    213     122     123      ar
    214     122     152      ar
    215     123     153      ar
    216     124     125      ar
    217     124     154      ar
    218     125     155      ar
    219     126     127      ar
    220     126     156      ar
    221     127     157      ar
    222     128     129      ar
    223     128     158      ar
    224     129     159      ar
    225     130     131      ar
    226     130     160      ar
    227     131     161      ar
    228     132     133      ar
    229     132     162      ar
    230     133     163      ar
    231     134     135      ar
    232     134     164      ar
    233     135     165      ar
    234     136     137      ar
    235     136     166      ar
    236     137     167      ar
    237     138     139      ar
    238     138     168      ar
    239     139     169      ar
    240     140     141      ar
    241     140     170      ar
    242     141     171      ar
    243     142     143      ar
    244     142     172      ar
    245     143     173      ar
    246     144     145      ar
    247     144     174      ar
    248     145     175      ar
    249     146     147      ar
    250     146     176      ar
    251     147     177      ar
    252     148     149      ar
    253     148     178      ar
    254     149     179      ar
    255     150     180      ar
    256     151     152      ar
    257     151     181      ar
    258     152     182      ar
    259     153     154      ar
    260     153     183      ar
    261     154     184      ar
    262     155     156      ar
    263     155     185      ar
    264     156     186      ar
    265     157     158      ar
    266     157     187      ar
    267     158     188      ar
    268     159     160      ar
    269     159     189      ar
    270     160     190      ar
    271     161     162      ar
    272     161     191      ar
    273     162     192      ar
    274     163     164      ar
    275     163     193      ar
    276     164     194      ar
    277     165     166      ar
    278     165     195      ar
    279     166     196      ar
    280     167     168      ar
    281     167     197      ar
    282     168     198      ar
    283     169     170      ar
    284     169     199      ar
    285     170     200      ar
    286     171     172      ar
    287     171     201      ar
    288     172     202      ar
    289     173     174      ar
    290     173     203      ar
    291     174     204      ar
    292     175     176      ar
    293     175     205      ar
    294     176     206      ar
    295     177     178      ar
    296     177     207      ar
    297     178     208      ar
    298     179     180      ar
    299     179     209      ar
    300     180     210      ar
    301     181     210      ar
    302     181     211      ar
    303     182     183      ar
    304     182     212      ar
    305     183     213      ar
    306     184     185      ar
    307     184     214      ar
    308     185     215      ar
    309     186     187      ar
    310     186     216      ar
    311     187     217      ar
    312     188     189      ar
    313     188     218      ar
    314     189     219      ar
    315     190     191      ar
    316     190     220      ar
    317     191     221      ar
    318     192     193      ar
    319     192     222      ar
    320     193     223      ar
    321     194     195      ar
    322     194     224      ar
    323     195     225      ar
    324     196     197      ar
    325     196     226      ar
    326     197     227      ar
    327     198     199      ar
    328     198     228      ar
    329     199     229      ar
    330     200     201      ar
    331     200     230      ar
    332     201     231      ar
    333     202     203      ar
    334     202     232      ar
    335     203     233      ar
    336     204     205      ar
    337     204     234      ar
    338     205     235      ar
    339     206     207      ar
    340     206     236      ar
    341     207     237      ar
    342     208     209      ar
    343     208     238      ar
    344     209     239      ar
    345     210     240      ar
    346     211     212      ar
    347     211     241      ar
    348     212     242      ar
    349     213     214      ar
    350     213     243      ar
    351     214     244      ar
    352     215     216      ar
    353     215     245      ar
    354     216     246      ar
    355     217     218      ar
    356     217     247      ar
    357     218     248      ar
    358     219     220      ar
    359     219     249      ar
    360     220     250      ar
    361     221     222      ar
    362     221     251      ar
    363     222     252      ar
    364     223     224      ar
    365     223     253      ar
    366     224     254      ar
    367     225     226      ar
    368     225     255      ar
    369     226     256      ar
    370     227     228      ar
    371     227     257      ar
    372     228     258      ar
    373     229     230      ar
    374     229     259      ar
    375     230     260      ar
    376     231     232      ar
    377     231     261      ar
    378     232     262      ar
    379     233     234      ar
    380     233     263      ar
    381     234     264      ar
    382     235     236      ar
    383     235     265      ar
    384     236     266      ar
    385     237     238      ar
    386     237     267      ar
    387     238     268      ar
    388     239     240      ar
    389     239     269      ar
    390     240     270      ar
    391     241     270      ar
    392     241     271      ar
    393     242     243      ar
    394     242     272      ar
    395     243     273      ar
    396     244     245      ar
    397     244     274      ar
    398     245     275      ar
    399     246     247      ar
    400     246     276      ar
    401     247     277      ar
    402     248     249      ar
    403     248     278      ar
    404     249     279      ar
    405     250     251      ar
    406     250     280      ar
    407     251     281      ar
    408     252     253      ar
    409     252     282      ar
    410     253     283      ar
    411     254     255      ar
    412     254     284      ar
    413     255     285      ar
    414     256     257      ar
    415     256     286      ar
    416     257     287      ar
    417     258     259      ar
    418     258     288      ar
    419     259     289      ar
    420     260     261      ar
    421     260     290      ar
    422     261     291      ar
    423     262     263      ar
    424     262     292      ar
    425     263     293      ar
    426     264     265      ar
    427     264     294      ar
    428     265     295      ar
    429     266     267      ar
    430     266     296      ar
    431     267     297      ar
    432     268     269      ar
    433     268     298      ar
    434     269     299      ar
    435     270     300      ar
    436     271     272      ar
    437     271     301      ar
    438     272     302      ar
    439     273     274      ar
    440     273     303      ar
    441     274     304      ar
    442     275     276      ar
    443     275     305      ar
    444     276     306      ar
    445     277     278      ar
    446     277     307      ar
    447     278     308      ar
    448     279     280      ar
    449     279     309      ar
    450     280     310      ar
    451     281     282      ar
    452     281     311      ar
    453     282     312      ar
    454     283     284      ar
    455     283     313      ar
    456     284     314      ar
    457     285     286      ar
    458     285     315      ar
    459     286     316      ar
    460     287     288      ar
    461     287     317      ar
    462     288     318      ar
    463     289     290      ar
    464     289     319      ar
    465     290     320      ar
    466     291     292      ar
    467     291     321      ar
    468     292     322      ar
    469     293     294      ar
    470     293     323      ar
    471     294     324      ar
    472     295     296      ar
    473     295     325      ar
    474     296     326      ar
    475     297     298      ar
    476     297     327      ar
    477     298     328      ar
    478     299     300      ar
    479     299     329      ar
    480     300     330      ar
    481     301     330      ar
    482     301     331      ar
    483     302     303      ar
    484     302     332      ar
    485     303     333      ar
    486     304     305      ar
    487     304     334      ar
    488     305     335      ar
    489     306     307      ar
    490     306     336      ar
    491     307     337      ar
    492     308     309      ar
    493     308     338      ar
    494     309     339      ar
    495     310     311      ar
    496     310     340      ar
    497     311     341      ar
    498     312     313      ar
    499     312     342      ar
    500     313     343      ar
    501     314     315      ar
    502     314     344      ar
    503     315     345      ar
    504     316     317      ar
    505     316     346      ar
    506     317     347      ar
    507     318     319      ar
    508     318     348      ar
    509     319     349      ar
    510     320     321      ar
    511     320     350      ar
    512     321     351      ar
    513     322     323      ar
    514     322     352      ar
    515     323     353      ar
    516     324     325      ar
    517     324     354      ar
    518     325     355      ar
    519     326     327      ar
    520     326     356      ar
    521     327     357      ar
    522     328     329      ar
    523     328     358      ar
    524     329     359      ar
    525     330     360      ar
    526     331     332      ar
    527     331     361      ar
    528     332     362      ar
    529     333     334      ar
    530     333     363      ar
    531     334     364      ar
    532     335     336      ar
    533     335     365      ar
    534     336     366      ar
    535     337     338      ar
    536     337     367      ar
    537     338     368      ar
    538     339     340      ar
    539     339     369      ar
    540     340     370      ar
    541     341     342      ar
    542     341     371      ar
    543     342     372      ar
    544     343     344      ar
    545     343     373      ar
    546     344     374      ar
    547     345     346      ar
    548     345     375      ar
    549     346     376      ar
    550     347     348      ar
    551     347     377      ar
    552     348     378      ar
    553     349     350      ar
    554     349     379      ar
    555     350     380      ar
    556     351     352      ar
    557     351     381      ar
    558     352     382      ar
    559     353     354      ar
    560     353     383      ar
    561     354     384      ar
    562     355     356      ar
    563     355     385      ar
    564     356     386      ar
    565     357     358      ar
    566     357     387      ar
    567     358     388      ar
    568     359     360      ar
    569     359     389      ar
    570     360     390      ar
    571     361     390      ar
    572     361     391      ar
    573     362     363      ar
    574     362     392      ar
    575     363     393      ar
    576     364     365      ar
    577     364     394      ar
    578     365     395      ar
    579     366     367      ar
    580     366     396      ar
    581     367     397      ar
    582     368     369      ar
    583     368     398      ar
    584     369     399      ar
    585     370     371      ar
    586     370     400      ar
    587     371     401      ar
    588     372     373      ar
    589     372     402      ar
    590     373     403      ar
    591     374     375      ar
    592     374     404      ar
    593     375     405      ar
    594     376     377      ar
    595     376     406      ar
    596     377     407      ar
    597     378     379      ar
    598     378     408      ar
    599     379     409      ar
    600     380     381      ar
    601     380     410      ar
    602     381     411      ar
    603     382     383      ar
    604     382     412      ar
    605     383     413      ar
    606     384     385      ar
    607     384     414      ar
    608     385     415      ar
    609     386     387      ar
    610     386     416      ar
    611     387     417      ar
    612     388     389      ar
    613     388     418      ar
    614     389     419      ar
    615     390     420      ar
    616     391     392      ar
    617     391     421      ar
    618     392     422      ar
    619     393     394      ar
    620     393     423      ar
    621     394     424      ar
    622     395     396      ar
    623     395     425      ar
    624     396     426      ar
    625     397     398      ar
    626     397     427      ar
    627     398     428      ar
    628     399     400      ar
    629     399     429      ar
    630     400     430      ar
    631     401     402      ar
    632     401     431      ar
    633     402     432      ar
    634     403     404      ar
    635     403     433      ar
    636     404     434      ar
    637     405     406      ar
    638     405     435      ar
    639     406     436      ar
    640     407     408      ar
    641     407     437      ar
    642     408     438      ar
    643     409     410      ar
    644     409     439      ar
    645     410     440      ar
    646     411     412      ar
    647     411     441      ar
    648     412     442      ar
    649     413     414      ar
    650     413     443      ar
    651     414     444      ar
    652     415     416      ar
    653     415     445      ar
    654     416     446      ar
    655     417     418      ar
    656     417     447      ar
    657     418     448      ar
    658     419     420      ar
    659     419     449      ar
    660     420     450      ar
    661     421     450      ar
    662     421     451      ar
    663     422     423      ar
    664     422     452      ar
    665     423     453      ar
    666     424     425      ar
    667     424     454      ar
    668     425     455      ar
    669     426     427      ar
    670     426     456      ar
    671     427     457      ar
    672     428     429      ar
    673     428     458      ar
    674     429     459      ar
    675     430     431      ar
    676     430     460      ar
    677     431     461      ar
    678     432     433      ar
    679     432     462      ar
    680     433     463      ar
    681     434     435      ar
    682     434     464      ar
    683     435     465      ar
    684     436     437      ar
    685     436     466      ar
    686     437     467      ar
    687     438     439      ar
    688     438     468      ar
    689     439     469      ar
    690     440     441      ar
    691     440     470      ar
    692     441     471      ar
    693     442     443      ar
    694     442     472      ar
    695     443     473      ar
    696     444     445      ar
    697     444     474      ar
    698     445     475      ar
    699     446     447      ar
    700     446     476      ar
    701     447     477      ar
    702     448     449      ar
    703     448     478      ar
    704     449     479      ar
    705     450     480      ar
    706     451     452      ar
    707     451     481      ar
    708     452     482      ar
    709     453     454      ar
    710     453     483      ar
    711     454     484      ar
    712     455     456      ar
    713     455     485      ar
    714     456     486      ar
    715     457     458      ar
    716     457     487      ar
    717     458     488      ar
    718     459     460      ar
    719     459     489      ar
    720     460     490      ar
    721     461     462      ar
    722     461     491      ar
    723     462     492      ar
    724     463     464      ar
    725     463     493      ar
    726     464     494      ar
    727     465     466      ar
    728     465     495      ar
    729     466     496      ar
    730     467     468      ar
    731     467     497      ar
    732     468     498      ar
    733     469     470      ar
    734     469     499      ar
    735     470     500      ar
    736     471     472      ar
    737     471     501      ar
    738     472     502      ar
    739     473     474      ar
    740     473     503      ar
    741     474     504      ar
    742     475     476      ar
    743     475     505      ar
    744     476     506      ar
    745     477     478      ar
    746     477     507      ar
    747     478     508      ar
    748     479     480      ar
    749     479     509      ar
    750     480     510      ar
    751     481     510      ar
    752     481     511      ar
    753     482     483      ar
    754     482     512      ar
    755     483     513      ar
    756     484     485      ar
    757     484     514      ar
    758     485     515      ar
    759     486     487      ar
    760     486     516      ar
    761     487     517      ar
    762     488     489      ar
    763     488     518      ar
    764     489     519      ar
    765     490     491      ar
    766     490     520      ar
    767     491     521      ar
    768     492     493      ar
    769     492     522      ar
    770     493     523      ar
    771     494     495      ar
    772     494     524      ar
    773     495     525      ar
    774     496     497      ar
    775     496     526      ar
    776     497     527      ar
    777     498     499      ar
    778     498     528      ar
    779     499     529      ar
    780     500     501      ar
    781     500     530      ar
    782     501     531      ar
    783     502     503      ar
    784     502     532      ar
    785     503     533      ar
    786     504     505      ar
    787     504     534      ar
    788     505     535      ar
    789     506     507      ar
    790     506     536      ar
    791     507     537      ar
    792     508     509      ar
    793     508     538      ar
    794     509     539      ar
    795     510     540      ar
    796     511     512      ar
    797     511     541      ar
    798     512     542      ar
    799     513     514      ar
    800     513     543      ar
    801     514     544      ar
    802     515     516      ar
    803     515     545      ar
    804     516     546      ar
    805     517     518      ar
    806     517     547      ar
    807     518     548      ar
    808     519     520      ar
    809     519     549      ar
    810     520     550      ar
    811     521     522      ar
    812     521     551      ar
    813     522     552      ar
    814     523     524      ar
    815     523     553      ar
    816     524     554      ar
    817     525     526      ar
    818     525     555      ar
    819     526     556      ar
    820     527     528      ar
    821     527     557      ar
    822     528     558      ar
    823     529     530      ar
    824     529     559      ar
    825     530     560      ar
    826     531     532      ar
    827     531     561      ar
    828     532     562      ar
    829     533     534      ar
    830     533     563      ar
    831     534     564      ar
    832     535     536      ar
    833     535     565      ar
    834     536     566      ar
    835     537     538      ar
    836     537     567      ar
    837     538     568      ar
    838     539     540      ar
    839     539     569      ar
    840     540     570      ar
    841     541     570      ar
    842     541     571      ar
    843     542     543      ar
    844     542     572      ar
    845     543     573      ar
    846     544     545      ar
    847     544     574      ar
    848     545     575      ar
    849     546     547      ar
    850     546     576      ar
    851     547     577      ar
    852     548     549      ar
    853     548     578      ar
    854     549     579      ar
    855     550     551      ar
    856     550     580      ar
    857     551     581      ar
    858     552     553      ar
    859     552     582      ar
    860     553     583      ar
    861     554     555      ar
    862     554     584      ar
    863     555     585      ar
    864     556     557      ar
    865     556     586      ar
    866     557     587      ar
    867     558     559      ar
    868     558     588      ar
    869     559     589      ar
    870     560     561      ar
    871     560     590      ar
    872     561     591      ar
    873     562     563      ar
    874     562     592      ar
    875     563     593      ar
    876     564     565      ar
    877     564     594      ar
    878     565     595      ar
    879     566     567      ar
    880     566     596      ar
    881     567     597      ar
    882     568     569      ar
    883     568     598      ar
    884     569     599      ar
    885     570     600      ar
    886     571     572      ar
    887     571     601      ar
    888     572     602      ar
    889     573     574      ar
    890     573     603      ar
    891     574     604      ar
    892     575     576      ar
    893     575     605      ar
    894     576     606      ar
    895     577     578      ar
    896     577     607      ar
    897     578     608      ar
    898     579     580      ar
    899     579     609      ar
    900     580     610      ar
    901     581     582      ar
    902     581     611      ar
    903     582     612      ar
    904     583     584      ar
    905     583     613      ar
    906     584     614      ar
    907     585     586      ar
    908     585     615      ar
    909     586     616      ar
    910     587     588      ar
    911     587     617      ar
    912     588     618      ar
    913     589     590      ar
    914     589     619      ar
    915     590     620      ar
    916     591     592      ar
    917     591     621      ar
    918     592     622      ar
    919     593     594      ar
    920     593     623      ar
    921     594     624      ar
    922     595     596      ar
    923     595     625      ar
    924     596     626      ar
    925     597     598      ar
    926     597     627      ar
    927     598     628      ar
    928     599     600      ar
    929     599     629      ar
    930     600     630      ar
    931     601     630      ar
    932     601     631      ar
    933     602     603      ar
    934     602     632      ar
    935     603     633      ar
    936     604     605      ar
    937     604     634      ar
    938     605     635      ar
    939     606     607      ar
    940     606     636      ar
    941     607     637      ar
    942     608     609      ar
    943     608     638      ar
    944     609     639      ar
    945     610     611      ar
    946     610     640      ar
    947     611     641      ar
    948     612     613      ar
    949     612     642      ar
    950     613     643      ar
    951     614     615      ar
    952     614     644      ar
    953     615     645      ar
    954     616     617      ar
    955     616     646      ar
    956     617     647      ar
    957     618     619      ar
    958     618     648      ar
    959     619     649      ar
    960     620     621      ar
    961     620     650      ar
    962     621     651      ar
    963     622     623      ar
    964     622     652      ar
    965     623     653      ar
    966     624     625      ar
    967     624     654      ar
    968     625     655      ar
    969     626     627      ar
    970     626     656      ar
    971     627     657      ar
    972     628     629      ar
    973     628     658      ar
    974     629     659      ar
    975     630     660      ar
    976     631     632      ar
    977     631     661      ar
    978     632     662      ar
    979     633     634      ar
    980     633     663      ar
    981     634     664      ar
    982     635     636      ar
    983     635     665      ar
    984     636     666      ar
    985     637     638      ar
    986     637     667      ar
    987     638     668      ar
    988     639     640      ar
    989     639     669      ar
    990     640     670      ar
    991     641     642      ar
    992     641     671      ar
    993     642     672      ar
    994     643     644      ar
    995     643     673      ar
    996     644     674      ar
    997     645     646      ar
    998     645     675      ar
    999     646     676      ar
   1000     647     648      ar
   1001     647     677      ar
   1002     648     678      ar
   1003     649     650      ar
   1004     649     679      ar
   1005     650     680      ar
   1006     651     652      ar
   1007     651     681      ar
   1008     652     682      ar
   1009     653     654      ar
   1010     653     683      ar
   1011     654     684      ar
   1012     655     656      ar
   1013     655     685      ar
   1014     656     686      ar
   1015     657     658      ar
   1016     657     687      ar
   1017     658     688      ar
   1018     659     660      ar
   1019     659     689      ar
   1020     660     690      ar
   1021     661     690      ar
   1022     661     691      ar
   1023     662     663      ar
   1024     662     692      ar
   1025     663     693      ar
   1026     664     665      ar
   1027     664     694      ar
   1028     665     695      ar
   1029     666     667      ar
   1030     666     696      ar
   1031     667     697      ar
   1032     668     669      ar
   1033     668     698      ar
   1034     669     699      ar
   1035     670     671      ar
   1036     670     700      ar
   1037     671     701      ar
   1038     672     673      ar
   1039     672     702      ar
   1040     673     703      ar
   1041     674     675      ar
   1042     674     704      ar
   1043     675     705      ar
   1044     676     677      ar
   1045     676     706      ar
   1046     677     707      ar
   1047     678     679      ar
   1048     678     708      ar
   1049     679     709      ar
   1050     680     681      ar
   1051     680     710      ar
   1052     681     711      ar
   1053     682     683      ar
   1054     682     712      ar
   1055     683     713      ar
   1056     684     685      ar
   1057     684     714      ar
   1058     685     715      ar
   1059     686     687      ar
   1060     686     716      ar
   1061     687     717      ar
   1062     688     689      ar
   1063     688     718      ar
   1064     689     719      ar
   1065     690     720      ar
   1066     691     692      ar
   1067     691     721      ar
   1068     692     722      ar
   1069     693     694      ar
   1070     693     723      ar
   1071     694     724      ar
   1072     695     696      ar
   1073     695     725      ar
   1074     696     726      ar
   1075     697     698      ar
   1076     697     727      ar
   1077     698     728      ar
   1078     699     700      ar
   1079     699     729      ar
   1080     700     730      ar
   1081     701     702      ar
   1082     701     731      ar
   1083     702     732      ar
   1084     703     704      ar
   1085     703     733      ar
   1086     704     734      ar
   1087     705     706      ar
   1088     705     735      ar
   1089     706     736      ar
   1090     707     708      ar
   1091     707     737      ar
   1092     708     738      ar
   1093     709     710      ar
   1094     709     739      ar
   1095     710     740      ar
   1096     711     712      ar
   1097     711     741      ar
   1098     712     742      ar
   1099     713     714      ar
   1100     713     743      ar
   1101     714     744      ar
   1102     715     716      ar
   1103     715     745      ar
   1104     716     746      ar
   1105     717     718      ar
   1106     717     747      ar
   1107     718     748      ar
   1108     719     720      ar
   1109     719     749      ar
   1110     720     750      ar
   1111     721     750      ar
   1112     721     751      ar
   1113     722     723      ar
   1114     722     752      ar
   1115     723     753      ar
   1116     724     725      ar
   1117     724     754      ar
   1118     725     755      ar
   1119     726     727      ar
   1120     726     756      ar
   1121     727     757      ar
   1122     728     729      ar
   1123     728     758      ar
   1124     729     759      ar
   1125     730     731      ar
   1126     730     760      ar
   1127     731     761      ar
   1128     732     733      ar
   1129     732     762      ar
   1130     733     763      ar
   1131     734     735      ar
   1132     734     764      ar
   1133     735     765      ar
   1134     736     737      ar
   1135     736     766      ar
   1136     737     767      ar
   1137     738     739      ar
   1138     738     768      ar
   1139     739     769      ar
   1140     740     741      ar
   1141     740     770      ar
   1142     741     771      ar
   1143     742     743      ar
   1144     742     772      ar
   1145     743     773      ar
   1146     744     745      ar
   1147     744     774      ar
   1148     745     775      ar
   1149     746     747      ar
   1150     746     776      ar
   1151     747     777      ar
   1152     748     749      ar
   1153     748     778      ar
   1154     749     779      ar
   1155     750     780      ar
   1156     751     752      ar
   1157     751     781      ar
   1158     752     782      ar
   1159     753     754      ar
   1160     753     783      ar
   1161     754     784      ar
   1162     755     756      ar
   1163     755     785      ar
   1164     756     786      ar
   1165     757     758      ar
   1166     757     787      ar
   1167     758     788      ar
   1168     759     760      ar
   1169     759     789      ar
   1170     760     790      ar
   1171     761     762      ar
   1172     761     791      ar
   1173     762     792      ar
   1174     763     764      ar
   1175     763     793      ar
   1176     764     794      ar
   1177     765     766      ar
   1178     765     795      ar
   1179     766     796      ar
   1180     767     768      ar
   1181     767     797      ar
   1182     768     798      ar
   1183     769     770      ar
   1184     769     799      ar
   1185     770     800      ar
   1186     771     772      ar
   1187     771     801      ar
   1188     772     802      ar
   1189     773     774      ar
   1190     773     803      ar
   1191     774     804      ar
   1192     775     776      ar
   1193     775     805      ar
   1194     776     806      ar
   1195     777     778      ar
   1196     777     807      ar
   1197     778     808      ar
   1198     779     780      ar
   1199     779     809      ar
   1200     780     810      ar
   1201     781     810      ar
   1202     781     811      ar
   1203     782     783      ar
   1204     782     812      ar
   1205     783     813      ar
   1206     784     785      ar
   1207     784     814      ar
   1208     785     815      ar
   1209     786     787      ar
   1210     786     816      ar
   1211     787     817      ar
   1212     788     789      ar
   1213     788     818      ar
   1214     789     819      ar
   1215     790     791      ar
   1216     790     820      ar
   1217     791     821      ar
   1218     792     793      ar
   1219     792     822      ar
   1220     793     823      ar
   1221     794     795      ar
   1222     794     824      ar
   1223     795     825      ar
   1224     796     797      ar
   1225     796     826      ar
   1226     797     827      ar
   1227     798     799      ar
   1228     798     828      ar
   1229     799     829      ar
   1230     800     801      ar
   1231     800     830      ar
   1232     801     831      ar
   1233     802     803      ar
   1234     802     832      ar
   1235     803     833      ar
   1236     804     805      ar
   1237     804     834      ar
   1238     805     835      ar
   1239     806     807      ar
   1240     806     836      ar
   1241     807     837      ar
   1242     808     809      ar
   1243     808     838      ar
   1244     809     839      ar
   1245     810     840      ar
   1246     811     812      ar
   1247     811     841      ar
   1248     812     842      ar
   1249     813     814      ar
   1250     813     843      ar
   1251     814     844      ar
   1252     815     816      ar
   1253     815     845      ar
   1254     816     846      ar
   1255     817     818      ar
   1256     817     847      ar
   1257     818     848      ar
   1258     819     820      ar
   1259     819     849      ar
   1260     820     850      ar
   1261     821     822      ar
   1262     821     851      ar
   1263     822     852      ar
   1264     823     824      ar
   1265     823     853      ar
   1266     824     854      ar
   1267     825     826      ar
   1268     825     855      ar
   1269     826     856      ar
   1270     827     828      ar
   1271     827     857      ar
   1272     828     858      ar
   1273     829     830      ar
   1274     829     859      ar
   1275     830     860      ar
   1276     831     832      ar
   1277     831     861      ar
   1278     832     862      ar
   1279     833     834      ar
   1280     833     863      ar
   1281     834     864      ar
   1282     835     836      ar
   1283     835     865      ar
   1284     836     866      ar
   1285     837     838      ar
   1286     837     867      ar
   1287     838     868      ar
   1288     839     840      ar
   1289     839     869      ar
   1290     840     870      ar
   1291     841     870      ar
   1292     841     871      ar
   1293     842     843      ar
   1294     842     872      ar
   1295     843     873      ar
   1296     844     845      ar
   1297     844     874      ar
   1298     845     875      ar
   1299     846     847      ar
   1300     846     876      ar
   1301     847     877      ar
   1302     848     849      ar
   1303     848     878      ar
   1304     849     879      ar
   1305     850     851      ar
   1306     850     880      ar
   1307     851     881      ar
   1308     852     853      ar
   1309     852     882      ar
   1310     853     883      ar
   1311     854     855      ar
   1312     854     884      ar
   1313     855     885      ar
   1314     856     857      ar
   1315     856     886      ar
   1316     857     887      ar
   1317     858     859      ar
   1318     858     888      ar
   1319     859     889      ar
   1320     860     861      ar
   1321     860     890      ar
   1322     861     891      ar
   1323     862     863      ar
   1324     862     892      ar
   1325     863     893      ar
   1326     864     865      ar
   1327     864     894      ar
   1328     865     895      ar
   1329     866     867      ar
   1330     866     896      ar
   1331     867     897      ar
   1332     868     869      ar
   1333     868     898      ar
   1334     869     899      ar
   1335     870     900      ar
   1336     871     872      ar
   1337     871     901      ar
   1338     872     902      ar
   1339     873     874      ar
   1340     873     903      ar
   1341     874     904      ar
   1342     875     876      ar
   1343     875     905      ar
   1344     876     906      ar
   1345     877     878      ar
   1346     877     907      ar
   1347     878     908      ar
   1348     879     880      ar
   1349     879     909      ar
   1350     880     910      ar
   1351     881     882      ar
   1352     881     911      ar
   1353     882     912      ar
   1354     883     884      ar
   1355     883     913      ar
   1356     884     914      ar
   1357     885     886      ar
   1358     885     915      ar
   1359     886     916      ar
   1360     887     888      ar
   1361     887     917      ar
   1362     888     918      ar
   1363     889     890      ar
   1364     889     919      ar
   1365     890     920      ar
   1366     891     892      ar
   1367     891     921      ar
   1368     892     922      ar
   1369     893     894      ar
   1370     893     923      ar
   1371     894     924      ar
   1372     895     896      ar
   1373     895     925      ar
   1374     896     926      ar
   1375     897     898      ar
   1376     897     927      ar
   1377     898     928      ar
   1378     899     900      ar
   1379     899     929      ar
   1380     900     930      ar
   1381     901     930      ar
   1382     901     931      ar
   1383     902     903      ar
   1384     902     932      ar
   1385     903     933      ar
   1386     904     905      ar
   1387     904     934      ar
   1388     905     935      ar
   1389     906     907      ar
   1390     906     936      ar
   1391     907     937      ar
   1392     908     909      ar
   1393     908     938      ar
   1394     909     939      ar
   1395     910     911      ar
   1396     910     940      ar
   1397     911     941      ar
   1398     912     913      ar
   1399     912     942      ar
   1400     913     943      ar
   1401     914     915      ar
   1402     914     944      ar
   1403     915     945      ar
   1404     916     917      ar
   1405     916     946      ar
   1406     917     947      ar
   1407     918     919      ar
   1408     918     948      ar
   1409     919     949      ar
   1410     920     921      ar
   1411     920     950      ar
   1412     921     951      ar
   1413     922     923      ar
   1414     922     952      ar
   1415     923     953      ar
   1416     924     925      ar
   1417     924     954      ar
   1418     925     955      ar
   1419     926     927      ar
   1420     926     956      ar
   1421     927     957      ar
   1422     928     929      ar
   1423     928     958      ar
   1424     929     959      ar
   1425     930     960      ar
   1426     931     932      ar
   1427     931     961      ar
   1428     932     962      ar
   1429     933     934      ar
   1430     933     963      ar
   1431     934     964      ar
   1432     935     936      ar
   1433     935     965      ar
   1434     936     966      ar
   1435     937     938      ar
   1436     937     967      ar
   1437     938     968      ar
   1438     939     940      ar
   1439     939     969      ar
   1440     940     970      ar
   1441     941     942      ar
   1442     941     971      ar
   1443     942     972      ar
   1444     943     944      ar
   1445     943     973      ar
   1446     944     974      ar
   1447     945     946      ar
   1448     945     975      ar
   1449     946     976      ar
   1450     947     948      ar
   1451     947     977      ar
   1452     948     978      ar
   1453     949     950      ar
   1454     949     979      ar
   1455     950     980      ar
   1456     951     952      ar
   1457     951     981      ar
   1458     952     982      ar
   1459     953     954      ar
   1460     953     983      ar
   1461     954     984      ar
   1462     955     956      ar
   1463     955     985      ar
   1464     956     986      ar
   1465     957     958      ar
   1466     957     987      ar
   1467     958     988      ar
   1468     959     960      ar
   1469     959     989      ar
   1470     960     990      ar
   1471     961     990      ar
   1472     961     991      ar
   1473     962     963      ar
   1474     962     992      ar
   1475     963     993      ar
   1476     964     965      ar
   1477     964     994      ar
   1478     965     995      ar
   1479     966     967      ar
   1480     966     996      ar
   1481     967     997      ar
   1482     968     969      ar
   1483     968     998      ar
   1484     969     999      ar
   1485     970     971      ar
   1486     970    1000      ar
   1487     971    1001      ar
   1488     972     973      ar
   1489     972    1002      ar
   1490     973    1003      ar
   1491     974     975      ar
   1492     974    1004      ar
   1493     975    1005      ar
   1494     976     977      ar
   1495     976    1006      ar
   1496     977    1007      ar
   1497     978     979      ar
   1498     978    1008      ar
   1499     979    1009      ar
   1500     980     981      ar
   1501     980    1010      ar
   1502     981    1011      ar
   1503     982     983      ar
   1504     982    1012      ar
   1505     983    1013      ar
   1506     984     985      ar
   1507     984    1014      ar
   1508     985    1015      ar
   1509     986     987      ar
   1510     986    1016      ar
   1511     987    1017      ar
   1512     988     989      ar
   1513     988    1018      ar
   1514     989    1019      ar
   1515     990    1020      ar
   1516     991     992      ar
   1517     991    1021      ar
   1518     992    1022      ar
   1519     993     994      ar
   1520     993    1023      ar
   1521     994    1024      ar
   1522     995     996      ar
   1523     995    1025      ar
   1524     996    1026      ar
   1525     997     998      ar
   1526     997    1027      ar
   1527     998    1028      ar
   1528     999    1000      ar
   1529     999    1029      ar
   1530    1000    1030      ar
   1531    1001    1002      ar
   1532    1001    1031      ar
   1533    1002    1032      ar
   1534    1003    1004      ar
   1535    1003    1033      ar
   1536    1004    1034      ar
   1537    1005    1006      ar
   1538    1005    1035      ar
   1539    1006    1036      ar
   1540    1007    1008      ar
   1541    1007    1037      ar
   1542    1008    1038      ar
   1543    1009    1010      ar
   1544    1009    1039      ar
   1545    1010    1040      ar
   1546    1011    1012      ar
   1547    1011    1041      ar
   1548    1012    1042      ar
   1549    1013    1014      ar
   1550    1013    1043      ar
   1551    1014    1044      ar
   1552    1015    1016      ar
   1553    1015    1045      ar
   1554    1016    1046      ar
   1555    1017    1018      ar
   1556    1017    1047      ar
   1557    1018    1048      ar
   1558    1019    1020      ar
   1559    1019    1049      ar
   1560    1020    1050      ar
   1561    1021    1050      ar
   1562    1021    1051      ar
   1563    1022    1023      ar
   1564    1022    1052      ar
   1565    1023    1053      ar
   1566    1024    1025      ar
   1567    1024    1054      ar
   1568    1025    1055      ar
   1569    1026    1027      ar
   1570    1026    1056      ar
   1571    1027    1057      ar
   1572    1028    1029      ar
   1573    1028    1058      ar
   1574    1029    1059      ar
   1575    1030    1031      ar
   1576    1030    1060      ar
   1577    1031    1061      ar
   1578    1032    1033      ar
   1579    1032    1062      ar
   1580    1033    1063      ar
   1581    1034    1035      ar
   1582    1034    1064      ar
   1583    1035    1065      ar
   1584    1036    1037      ar
   1585    1036    1066      ar
   1586    1037    1067      ar
   1587    1038    1039      ar
   1588    1038    1068      ar
   1589    1039    1069      ar
   1590    1040    1041      ar
   1591    1040    1070      ar
   1592    1041    1071      ar
   1593    1042    1043      ar
   1594    1042    1072      ar
   1595    1043    1073      ar
   1596    1044    1045      ar
   1597    1044    1074      ar
   1598    1045    1075      ar
   1599    1046    1047      ar
   1600    1046    1076      ar
   1601    1047    1077      ar
   1602    1048    1049      ar
   1603    1048    1078      ar
   1604    1049    1079      ar
   1605    1050    1080      ar
   1606    1051    1052      ar
   1607    1051    1081      ar
   1608    1052    1082      ar
   1609    1053    1054      ar
   1610    1053    1083      ar
   1611    1054    1084      ar
   1612    1055    1056      ar
   1613    1055    1085      ar
   1614    1056    1086      ar
   1615    1057    1058      ar
   1616    1057    1087      ar
   1617    1058    1088      ar
   1618    1059    1060      ar
   1619    1059    1089      ar
   1620    1060    1090      ar
   1621    1061    1062      ar
   1622    1061    1091      ar
   1623    1062    1092      ar
   1624    1063    1064      ar
   1625    1063    1093      ar
   1626    1064    1094      ar
   1627    1065    1066      ar
   1628    1065    1095      ar
   1629    1066    1096      ar
   1630    1067    1068      ar
   1631    1067    1097      ar
   1632    1068    1098      ar
   1633    1069    1070      ar
   1634    1069    1099      ar
   1635    1070    1100      ar
   1636    1071    1072      ar
   1637    1071    1101      ar
   1638    1072    1102      ar
   1639    1073    1074      ar
   1640    1073    1103      ar
   1641    1074    1104      ar
   1642    1075    1076      ar
   1643    1075    1105      ar
   1644    1076    1106      ar
   1645    1077    1078      ar
   1646    1077    1107      ar
   1647    1078    1108      ar
   1648    1079    1080      ar
   1649    1079    1109      ar
   1650    1080    1110      ar
   1651    1081    1110      ar
   1652    1081    1111      ar
   1653    1082    1083      ar
   1654    1082    1112      ar
   1655    1083    1113      ar
   1656    1084    1085      ar
   1657    1084    1114      ar
   1658    1085    1115      ar
   1659    1086    1087      ar
   1660    1086    1116      ar
   1661    1087    1117      ar
   1662    1088    1089      ar
   1663    1088    1118      ar
   1664    1089    1119      ar
   1665    1090    1091      ar
   1666    1090    1120      ar
   1667    1091    1121      ar
   1668    1092    1093      ar
   1669    1092    1122      ar
   1670    1093    1123      ar
   1671    1094    1095      ar
   1672    1094    1124      ar
   1673    1095    1125      ar
   1674    1096    1097      ar
   1675    1096    1126      ar
   1676    1097    1127      ar
   1677    1098    1099      ar
   1678    1098    1128      ar
   1679    1099    1129      ar
   1680    1100    1101      ar
   1681    1100    1130      ar
   1682    1101    1131      ar
   1683    1102    1103      ar
   1684    1102    1132      ar
   1685    1103    1133      ar
   1686    1104    1105      ar
   1687    1104    1134      ar
   1688    1105    1135      ar
   1689    1106    1107      ar
   1690    1106    1136      ar
   1691    1107    1137      ar
   1692    1108    1109      ar
   1693    1108    1138      ar
   1694    1109    1139      ar
   1695    1110    1140      ar
   1696    1111    1112      ar
   1697    1111    1141      ar
   1698    1112    1142      ar
   1699    1113    1114      ar
   1700    1113    1143      ar
   1701    1114    1144      ar
   1702    1115    1116      ar
   1703    1115    1145      ar
   1704    1116    1146      ar
   1705    1117    1118      ar
   1706    1117    1147      ar
   1707    1118    1148      ar
   1708    1119    1120      ar
   1709    1119    1149      ar
   1710    1120    1150      ar
   1711    1121    1122      ar
   1712    1121    1151      ar
   1713    1122    1152      ar
   1714    1123    1124      ar
   1715    1123    1153      ar
   1716    1124    1154      ar
   1717    1125    1126      ar
   1718    1125    1155      ar
   1719    1126    1156      ar
   1720    1127    1128      ar
   1721    1127    1157      ar
   1722    1128    1158      ar
   1723    1129    1130      ar
   1724    1129    1159      ar
   1725    1130    1160      ar
   1726    1131    1132      ar
   1727    1131    1161      ar
   1728    1132    1162      ar
   1729    1133    1134      ar
   1730    1133    1163      ar
   1731    1134    1164      ar
   1732    1135    1136      ar
   1733    1135    1165      ar
   1734    1136    1166      ar
   1735    1137    1138      ar
   1736    1137    1167      ar
   1737    1138    1168      ar
   1738    1139    1140      ar
   1739    1139    1169      ar
   1740    1140    1170      ar
   1741    1141    1170      ar
   1742    1141    1171      ar
   1743    1142    1143      ar
   1744    1142    1172      ar
   1745    1143    1173      ar
   1746    1144    1145      ar
   1747    1144    1174      ar
   1748    1145    1175      ar
   1749    1146    1147      ar
   1750    1146    1176      ar
   1751    1147    1177      ar
   1752    1148    1149      ar
   1753    1148    1178      ar
   1754    1149    1179      ar
   1755    1150    1151      ar
   1756    1150    1180      ar
   1757    1151    1181      ar
   1758    1152    1153      ar
   1759    1152    1182      ar
   1760    1153    1183      ar
   1761    1154    1155      ar
   1762    1154    1184      ar
   1763    1155    1185      ar
   1764    1156    1157      ar
   1765    1156    1186      ar
   1766    1157    1187      ar
   1767    1158    1159      ar
   1768    1158    1188      ar
   1769    1159    1189      ar
   1770    1160    1161      ar
   1771    1160    1190      ar
   1772    1161    1191      ar
   1773    1162    1163      ar
   1774    1162    1192      ar
   1775    1163    1193      ar
   1776    1164    1165      ar
   1777    1164    1194      ar
   1778    1165    1195      ar
   1779    1166    1167      ar
   1780    1166    1196      ar
   1781    1167    1197      ar
   1782    1168    1169      ar
   1783    1168    1198      ar
   1784    1169    1199      ar
   1785    1170    1200      ar
   1786    1171    1172      ar
   1787    1171    1246       1
   1788    1172    1248       1
   1789    1173    1174      ar
   1790    1173    1249       1
   1791    1174    1251       1
   1792    1175    1176      ar
   1793    1175    1252       1
   1794    1176    1254       1
   1795    1177    1178      ar
   1796    1177    1255       1
   1797    1178    1257       1
   1798    1179    1180      ar
   1799    1179    1258       1
   1800    1180    1260       1
   1801    1181    1182      ar
   1802    1181    1261       1
   1803    1182    1263       1
   1804    1183    1184      ar
   1805    1183    1264       1
   1806    1184    1266       1
   1807    1185    1186      ar
   1808    1185    1267       1
   1809    1186    1269       1
   1810    1187    1188      ar
   1811    1187    1270       1
   1812    1188    1272       1
   1813    1189    1190      ar
   1814    1189    1273       1
   1815    1190    1275       1
   1816    1191    1192      ar
   1817    1191    1276       1
   1818    1192    1278       1
   1819    1193    1194      ar
   1820    1193    1279       1
   1821    1194    1281       1
   1822    1195    1196      ar
   1823    1195    1282       1
   1824    1196    1284       1
   1825    1197    1198      ar
   1826    1197    1285       1
   1827    1198    1287       1
   1828    1199    1200      ar
   1829    1199    1288       1
   1830    1200    1290       1
   1831    1201    1202       1
   1832    1204    1205       1
   1833    1207    1208       1
   1834    1210    1211       1
   1835    1213    1214       1
   1836    1216    1217       1
   1837    1219    1220       1
   1838    1222    1223       1
   1839    1225    1226       1
   1840    1228    1229       1
   1841    1231    1232       1
   1842    1234    1235       1
   1843    1237    1238       1
   1844    1240    1241       1
   1845    1243    1244       1
   1846    1246    1247       1
   1847    1249    1250       1
   1848    1252    1253       1
   1849    1255    1256       1
   1850    1258    1259       1
   1851    1261    1262       1
   1852    1264    1265       1
   1853    1267    1268       1
   1854    1270    1271       1
   1855    1273    1274       1
   1856    1276    1277       1
   1857    1279    1280       1
   1858    1282    1283       1
   1859    1285    1286       1
   1860    1288    1289       1
